@<TRIPOS>MOLECULE
./Mol08.log
 50 54 0 0 0
SMALL
GASTEIGER

@<TRIPOS>ATOM
      1 O           1.6776    0.8064   -3.1918 O.2     1  UNL1       -0.4774
      2 C           1.7203   -0.0655   -2.3338 C.2     1  UNL1        0.4437
      3 C           2.6851    0.1046   -1.1464 C.3     1  UNL1       -0.0754
      4 N           3.6071   -1.0035   -0.9625 N.ar    1  UNL1        0.2647
      5 N           4.1418   -1.6394   -2.0447 N.ar    1  UNL1       -0.1901
      6 N           4.9775   -2.5407   -1.6476 N.ar    1  UNL1       -0.3667
      7 C           5.0279   -2.5093   -0.2680 C.ar    1  UNL1        0.4143
      8 C           4.1429   -1.5104    0.1917 C.ar    1  UNL1       -0.0737
      9 C           3.9737   -1.2331    1.5590 C.ar    1  UNL1       -0.1684
     10 C           4.7225   -2.0011    2.4422 C.ar    1  UNL1       -0.0970
     11 C           5.6132   -3.0097    1.9927 C.ar    1  UNL1       -0.0539
     12 C           5.7782   -3.2770    0.6407 C.ar    1  UNL1       -0.2379
     13 N           0.9307   -1.1870   -2.3793 N.am    1  UNL1       -0.2899
     14 C           0.0767   -1.3642   -3.5763 C.3     1  UNL1        0.1787
     15 C          -1.2856   -0.7185   -3.4626 C.ar    1  UNL1        0.0767
     16 C          -1.5153    0.6216   -3.6730 C.ar    1  UNL1       -0.2454
     17 S          -3.1861    1.0356   -3.4549 S.2     1  UNL1        0.0174
     18 C          -3.5937   -0.6116   -3.0771 C.ar    1  UNL1       -0.1693
     19 C          -2.4894   -1.4211   -3.1192 C.ar    1  UNL1       -0.1526
     20 C           0.7809   -2.1145   -1.2968 C.ar    1  UNL1        0.2076
     21 C           1.3707   -3.3840   -1.3696 C.ar    1  UNL1       -0.1114
     22 C           1.1976   -4.2976   -0.3319 C.ar    1  UNL1       -0.1498
     23 C           0.4367   -3.9716    0.8074 C.ar    1  UNL1        0.0791
     24 C          -0.1567   -2.6979    0.8636 C.ar    1  UNL1       -0.1658
     25 C           0.0040   -1.7831   -0.1790 C.ar    1  UNL1       -0.1001
     26 C           0.2695   -4.9436    1.9165 C.ar    1  UNL1       -0.1446
     27 C          -0.9594   -5.0820    2.5906 C.ar    1  UNL1        0.3207
     28 N          -1.1822   -5.9299    3.6002 N.ar    1  UNL1       -0.5356
     29 C          -0.1596   -6.7041    3.9883 C.ar    1  UNL1        0.3392
     30 C           1.1032   -6.6656    3.3908 C.ar    1  UNL1       -0.2954
     31 C           1.3204   -5.7721    2.3435 C.ar    1  UNL1        0.1099
     32 H           2.1187    0.2247   -0.2117 H       1  UNL1        0.0618
     33 H           3.2340    1.0348   -1.3494 H       1  UNL1        0.0742
     34 H           3.2943   -0.4579    1.9166 H       1  UNL1        0.1133
     35 H           4.6256   -1.8221    3.5152 H       1  UNL1        0.0945
     36 H           6.1805   -3.5801    2.7310 H       1  UNL1        0.0882
     37 H           6.4627   -4.0466    0.2805 H       1  UNL1        0.1256
     38 H           0.6309   -0.9366   -4.4209 H       1  UNL1        0.0064
     39 H          -0.0312   -2.4457   -3.7375 H       1  UNL1        0.0033
     40 H          -0.7787    1.3793   -3.9312 H       1  UNL1        0.2076
     41 H          -4.6233   -0.8834   -2.8537 H       1  UNL1        0.1625
     42 H          -2.5251   -2.4931   -2.9187 H       1  UNL1        0.0906
     43 H           1.9817   -3.6404   -2.2364 H       1  UNL1        0.1266
     44 H           1.6537   -5.2862   -0.4118 H       1  UNL1        0.1050
     45 H          -0.7402   -2.4108    1.7404 H       1  UNL1        0.1059
     46 H          -0.4753   -0.8034   -0.1317 H       1  UNL1        0.0933
     47 H          -1.8193   -4.4805    2.2770 H       1  UNL1        0.0157
     48 H          -0.3609   -7.3886    4.8191 H       1  UNL1        0.0137
     49 H           1.9036   -7.3165    3.7485 H       1  UNL1        0.1200
     50 H           2.3043   -5.6970    1.8749 H       1  UNL1        0.0403
@<TRIPOS>BOND
     1     2     1    2
     2     2     3    1
     3     3    33    1
     4     3    32    1
     5     4     8   ar
     6     4     3    1
     7     5     4   ar
     8     6     5   ar
     9     6     7   ar
    10     7     8   ar
    11     8     9   ar
    12     9    34    1
    13    10     9   ar
    14    10    35    1
    15    11    36    1
    16    11    10   ar
    17    12     7   ar
    18    12    11   ar
    19    13    20    1
    20    13     2   am
    21    14    15    1
    22    14    13    1
    23    15    16   ar
    24    16    40    1
    25    16    17   ar
    26    18    41    1
    27    18    17   ar
    28    19    15   ar
    29    19    18   ar
    30    20    25   ar
    31    21    22   ar
    32    21    20   ar
    33    22    23   ar
    34    23    26    1
    35    23    24   ar
    36    24    45    1
    37    25    24   ar
    38    25    46    1
    39    26    27   ar
    40    27    28   ar
    41    27    47    1
    42    29    48    1
    43    29    28   ar
    44    30    29   ar
    45    31    30   ar
    46    31    26   ar
    47    37    12    1
    48    38    14    1
    49    39    14    1
    50    42    19    1
    51    43    21    1
    52    44    22    1
    53    49    30    1
    54    50    31    1
