@<TRIPOS>MOLECULE
./Mol01.log
 52 56 0 0 0
SMALL
GASTEIGER

@<TRIPOS>ATOM
      1 O           1.0249   -1.4572   -0.2630 O.2     1  UNL1       -0.5200
      2 C           1.2364   -0.3575   -0.7406 C.2     1  UNL1        0.6334
      3 C           2.6588    0.0606   -1.1674 C.3     1  UNL1       -0.0460
      4 N           3.6169   -0.9948   -0.9603 N.ar    1  UNL1        0.2971
      5 N           4.1428   -1.6423   -2.0452 N.ar    1  UNL1       -0.2151
      6 N           4.9766   -2.5406   -1.6484 N.ar    1  UNL1       -0.3515
      7 C           5.0231   -2.5128   -0.2677 C.ar    1  UNL1        0.4229
      8 C           5.7777   -3.2763    0.6402 C.ar    1  UNL1       -0.2694
      9 C           5.6176   -3.0053    1.9919 C.ar    1  UNL1       -0.0388
     10 C           4.7248   -1.9989    2.4415 C.ar    1  UNL1       -0.1183
     11 C           3.9683   -1.2381    1.5590 C.ar    1  UNL1       -0.1441
     12 C           4.1370   -1.5151    0.1924 C.ar    1  UNL1       -0.0713
     13 N           0.2460    0.5919   -0.9392 N.am    1  UNL1       -0.4558
     14 C           0.5468    1.9419   -1.4313 C.3     1  UNL1        0.1142
     15 C           1.0527    2.9090   -0.3785 C.ar    1  UNL1        0.1286
     16 C           1.6831    4.1554   -0.7123 C.ar    1  UNL1       -0.1545
     17 C           2.0281    4.8948    0.3873 C.ar    1  UNL1       -0.1750
     18 S           1.5929    4.0865    1.8615 S.2     1  UNL1        0.0307
     19 C           0.9387    2.7396    0.9796 C.ar    1  UNL1       -0.2431
     20 C          -1.1200    0.2681   -0.6188 C.ar    1  UNL1        0.2721
     21 C          -2.1301    0.4747   -1.5659 C.ar    1  UNL1       -0.1738
     22 C          -3.4683    0.2000   -1.2813 C.ar    1  UNL1       -0.1752
     23 C          -3.8168   -0.3205   -0.0237 C.ar    1  UNL1        0.3369
     24 C          -2.8002   -0.5510    0.9204 C.ar    1  UNL1       -0.2269
     25 C          -1.4707   -0.2603    0.6309 C.ar    1  UNL1       -0.1694
     26 N          -5.1379   -0.6359    0.3482 N.am    1  UNL1       -0.5750
     27 C          -6.3033   -0.4813   -0.3753 C.2     1  UNL1        0.6397
     28 O          -6.3457   -0.0225   -1.5108 O.2     1  UNL1       -0.4557
     29 C          -7.5364   -0.9260    0.3513 C.3     1  UNL1       -0.2681
     30 C          -8.6520   -1.5241   -0.4937 C.3     1  UNL1       -0.1194
     31 C          -8.8149   -0.1488    0.0709 C.3     1  UNL1       -0.1409
     32 H           2.6896    0.2831   -2.2432 H       1  UNL1        0.0117
     33 H           2.9685    0.9673   -0.6233 H       1  UNL1       -0.0055
     34 H           6.4597   -4.0480    0.2799 H       1  UNL1        0.1303
     35 H           6.1851   -3.5761    2.7297 H       1  UNL1        0.0821
     36 H           4.6267   -1.8218    3.5149 H       1  UNL1        0.0963
     37 H           3.2734   -0.4764    1.9139 H       1  UNL1        0.1110
     38 H           1.2685    1.8906   -2.2608 H       1  UNL1        0.0853
     39 H          -0.3772    2.3435   -1.8709 H       1  UNL1        0.0064
     40 H           1.8727    4.4830   -1.7358 H       1  UNL1        0.0964
     41 H           2.5211    5.8642    0.4194 H       1  UNL1        0.1696
     42 H           0.4917    1.9049    1.5136 H       1  UNL1        0.1627
     43 H          -1.8747    0.8497   -2.5594 H       1  UNL1        0.1332
     44 H          -4.2444    0.3697   -2.0224 H       1  UNL1        0.1240
     45 H          -3.0538   -0.9655    1.9004 H       1  UNL1        0.1261
     46 H          -0.7001   -0.4667    1.3720 H       1  UNL1        0.1455
     47 H          -5.2399   -1.0262    1.2775 H       1  UNL1        0.2905
     48 H          -7.4050   -1.3253    1.3604 H       1  UNL1        0.1332
     49 H          -8.4406   -1.6040   -1.5617 H       1  UNL1        0.0778
     50 H          -9.2208   -2.3464   -0.0548 H       1  UNL1        0.0855
     51 H          -9.4988    0.0010    0.9087 H       1  UNL1        0.0910
     52 H          -8.7117    0.6899   -0.6200 H       1  UNL1        0.0788
@<TRIPOS>BOND
     1     2     1    2
     2     3     4    1
     3     3    33    1
     4     3     2    1
     5     4    12   ar
     6     5     6   ar
     7     5     4   ar
     8     6     7   ar
     9     7    12   ar
    10     7     8   ar
    11     8     9   ar
    12     9    10   ar
    13     9    35    1
    14    10    36    1
    15    11    37    1
    16    11    10   ar
    17    12    11   ar
    18    13     2   am
    19    13    20    1
    20    14    13    1
    21    14    15    1
    22    15    19   ar
    23    16    15   ar
    24    16    17   ar
    25    17    18   ar
    26    19    42    1
    27    19    18   ar
    28    20    25   ar
    29    21    22   ar
    30    21    20   ar
    31    22    23   ar
    32    23    26    1
    33    23    24   ar
    34    24    45    1
    35    25    24   ar
    36    25    46    1
    37    26    47    1
    38    27    26   am
    39    27    29    1
    40    28    27    2
    41    29    48    1
    42    30    31    1
    43    30    50    1
    44    30    29    1
    45    31    29    1
    46    31    51    1
    47    32     3    1
    48    34     8    1
    49    38    14    1
    50    39    14    1
    51    40    16    1
    52    41    17    1
    53    43    21    1
    54    44    22    1
    55    49    30    1
    56    52    31    1
