@<TRIPOS>MOLECULE
./Mol07.log
 51 55 0 0 0
SMALL
GASTEIGER

@<TRIPOS>ATOM
      1 O           1.8559    0.9400   -3.2153 O.2     1  UNL1       -0.4847
      2 C           2.7667    0.8823   -2.3992 C.2     1  UNL1        0.4525
      3 C           2.5869    0.0153   -1.1402 C.3     1  UNL1       -0.0534
      4 N           3.6169   -0.9946   -0.9629 N.ar    1  UNL1        0.2475
      5 N           4.1332   -1.6472   -2.0442 N.ar    1  UNL1       -0.1889
      6 N           4.9780   -2.5402   -1.6477 N.ar    1  UNL1       -0.3692
      7 C           5.0280   -2.5092   -0.2680 C.ar    1  UNL1        0.4203
      8 C           4.1439   -1.5095    0.1916 C.ar    1  UNL1       -0.0534
      9 C           3.9696   -1.2368    1.5592 C.ar    1  UNL1       -0.2094
     10 C           4.7207   -2.0028    2.4422 C.ar    1  UNL1       -0.0643
     11 C           5.6142   -3.0087    1.9926 C.ar    1  UNL1       -0.0557
     12 C           5.7802   -3.2751    0.6406 C.ar    1  UNL1       -0.2478
     13 N           3.9430    1.5714   -2.5529 N.am    1  UNL1       -0.2924
     14 C           4.1256    2.3232   -3.8152 C.3     1  UNL1        0.1578
     15 C           3.5963    3.7390   -3.7732 C.ar    1  UNL1        0.1033
     16 C           2.2690    4.0631   -3.9335 C.ar    1  UNL1       -0.2554
     17 S           2.0010    5.7741   -3.8237 S.2     1  UNL1        0.0130
     18 C           3.6939    6.0700   -3.5609 C.ar    1  UNL1       -0.1576
     19 C           4.4098    4.9020   -3.5585 C.ar    1  UNL1       -0.1719
     20 C           4.9344    1.7171   -1.5271 C.ar    1  UNL1        0.2058
     21 C           4.7281    2.6010   -0.4601 C.ar    1  UNL1       -0.1032
     22 C           5.7069    2.7590    0.5229 C.ar    1  UNL1       -0.1437
     23 C           6.9226    2.0547    0.4583 C.ar    1  UNL1        0.0511
     24 C           7.1216    1.1839   -0.6305 C.ar    1  UNL1       -0.1397
     25 C           6.1439    1.0140   -1.6092 C.ar    1  UNL1       -0.1230
     26 C           7.9635    2.2221    1.5071 C.ar    1  UNL1        0.0810
     27 C           8.2194    3.4825    2.0785 C.ar    1  UNL1       -0.1343
     28 C           9.1961    3.6385    3.0639 C.ar    1  UNL1       -0.0468
     29 C           9.9385    2.5373    3.5006 C.ar    1  UNL1       -0.1156
     30 C           9.6949    1.2789    2.9425 C.ar    1  UNL1       -0.0481
     31 C           8.7185    1.1227    1.9568 C.ar    1  UNL1       -0.1174
     32 H           1.5994   -0.4547   -1.2489 H       1  UNL1        0.0690
     33 H           2.5825    0.6469   -0.2404 H       1  UNL1        0.0523
     34 H           3.2842   -0.4671    1.9168 H       1  UNL1        0.1245
     35 H           4.6199   -1.8272    3.5155 H       1  UNL1        0.0842
     36 H           6.1770   -3.5831    2.7312 H       1  UNL1        0.0862
     37 H           6.4615   -4.0476    0.2807 H       1  UNL1        0.1279
     38 H           5.2027    2.3305   -4.0322 H       1  UNL1        0.0083
     39 H           3.6135    1.7494   -4.5975 H       1  UNL1        0.0101
     40 H           1.4425    3.3749   -4.0962 H       1  UNL1        0.2112
     41 H           4.0582    7.0869   -3.4311 H       1  UNL1        0.1576
     42 H           5.4907    4.8626   -3.4147 H       1  UNL1        0.0945
     43 H           3.7954    3.1661   -0.4059 H       1  UNL1        0.0894
     44 H           5.5161    3.4302    1.3626 H       1  UNL1        0.0952
     45 H           8.0628    0.6383   -0.7189 H       1  UNL1        0.1014
     46 H           6.3034    0.3201   -2.4360 H       1  UNL1        0.1294
     47 H           7.6646    4.3556    1.7278 H       1  UNL1        0.0880
     48 H           9.3840    4.6282    3.4866 H       1  UNL1        0.0776
     49 H          10.7029    2.6595    4.2711 H       1  UNL1        0.0876
     50 H          10.2631    0.4099    3.2822 H       1  UNL1        0.0832
     51 H           8.5181    0.1295    1.5493 H       1  UNL1        0.0661
@<TRIPOS>BOND
     1     2     1    2
     2     2     3    1
     3     3    32    1
     4     3    33    1
     5     4     8   ar
     6     4     3    1
     7     5     4   ar
     8     6     5   ar
     9     6     7   ar
    10     7     8   ar
    11     8     9   ar
    12     9    34    1
    13    10     9   ar
    14    10    35    1
    15    11    36    1
    16    11    10   ar
    17    12     7   ar
    18    12    11   ar
    19    13    20    1
    20    13     2   am
    21    14    15    1
    22    14    13    1
    23    15    16   ar
    24    16    40    1
    25    16    17   ar
    26    18    41    1
    27    18    17   ar
    28    19    15   ar
    29    19    18   ar
    30    20    21   ar
    31    21    22   ar
    32    21    43    1
    33    22    44    1
    34    23    26    1
    35    23    22   ar
    36    24    23   ar
    37    25    24   ar
    38    25    20   ar
    39    26    27   ar
    40    27    28   ar
    41    27    47    1
    42    28    48    1
    43    29    49    1
    44    29    28   ar
    45    30    29   ar
    46    31    30   ar
    47    31    26   ar
    48    37    12    1
    49    38    14    1
    50    39    14    1
    51    42    19    1
    52    45    24    1
    53    46    25    1
    54    50    30    1
    55    51    31    1
