@<TRIPOS>MOLECULE
./Mol09.log
 41 44 0 0 0
SMALL
GASTEIGER

@<TRIPOS>ATOM
      1 O           3.2112    1.6838    0.4285 O.2     1  UNL1       -0.4831
      2 C           3.0930    1.4039   -0.7627 C.2     1  UNL1        0.4285
      3 C           2.5832    0.0102   -1.1608 C.3     1  UNL1        0.0317
      4 N           3.6058   -1.0037   -0.9612 N.ar    1  UNL1        0.2433
      5 N           4.1344   -1.6493   -2.0456 N.ar    1  UNL1       -0.1925
      6 N           4.9820   -2.5369   -1.6482 N.ar    1  UNL1       -0.3664
      7 C           5.0324   -2.5049   -0.2684 C.ar    1  UNL1        0.4345
      8 C           5.7804   -3.2762    0.6398 C.ar    1  UNL1       -0.2884
      9 C           5.6075   -3.0150    1.9914 C.ar    1  UNL1       -0.0329
     10 C           4.7190   -2.0038    2.4410 C.ar    1  UNL1       -0.1257
     11 C           3.9764   -1.2269    1.5609 C.ar    1  UNL1       -0.1079
     12 C           4.1467   -1.5075    0.1937 C.ar    1  UNL1       -0.0880
     13 N           3.4229    2.2853   -1.7574 N.am    1  UNL1       -0.2930
     14 C           3.9739    3.5991   -1.3452 C.3     1  UNL1        0.1538
     15 C           2.9318    4.6633   -1.0858 C.ar    1  UNL1        0.0897
     16 C           2.6000    5.7139   -2.0061 C.ar    1  UNL1       -0.1121
     17 C           1.6241    6.5536   -1.5375 C.ar    1  UNL1       -0.1875
     18 S           1.0856    6.0779    0.0451 S.2     1  UNL1        0.0260
     19 C           2.1897    4.7400    0.0702 C.ar    1  UNL1       -0.2601
     20 C           3.2358    2.0395   -3.1627 C.ar    1  UNL1        0.3622
     21 C           4.1904    1.3084   -3.8814 C.ar    1  UNL1       -0.2546
     22 C           4.0199    1.1004   -5.2525 C.ar    1  UNL1       -0.0545
     23 C           2.9066    1.6299   -5.9115 C.ar    1  UNL1       -0.0885
     24 C           1.9565    2.3639   -5.1945 C.ar    1  UNL1       -0.0876
     25 C           2.1170    2.5692   -3.8213 C.ar    1  UNL1       -0.1440
     26 H           1.7241   -0.2095   -0.5094 H       1  UNL1        0.0416
     27 H           2.2763   -0.0646   -2.2090 H       1  UNL1       -0.0240
     28 H           6.4643   -4.0461    0.2796 H       1  UNL1        0.1350
     29 H           6.1688   -3.5913    2.7298 H       1  UNL1        0.0836
     30 H           4.6254   -1.8240    3.5144 H       1  UNL1        0.0966
     31 H           3.3274   -0.4192    1.8965 H       1  UNL1        0.1114
     32 H           4.5591    3.4175   -0.4347 H       1  UNL1        0.0139
     33 H           4.6550    3.9231   -2.1437 H       1  UNL1       -0.0092
     34 H           3.0804    5.8374   -2.9780 H       1  UNL1        0.0754
     35 H           1.1942    7.4277   -2.0223 H       1  UNL1        0.1649
     36 H           2.2363    4.0675    0.9240 H       1  UNL1        0.2059
     37 H           5.0492    0.8850   -3.3592 H       1  UNL1        0.1450
     38 H           4.7595    0.5169   -5.8044 H       1  UNL1        0.0969
     39 H           2.7764    1.4662   -6.9835 H       1  UNL1        0.0891
     40 H           1.0823    2.7757   -5.7038 H       1  UNL1        0.0957
     41 H           1.3791    3.1366   -3.2521 H       1  UNL1        0.0751
@<TRIPOS>BOND
     1     2     1    2
     2     2    13   am
     3     3     4    1
     4     3     2    1
     5     4     5   ar
     6     4    12   ar
     7     5     6   ar
     8     6     7   ar
     9     7     8   ar
    10     8    28    1
    11     9     8   ar
    12     9    29    1
    13    10     9   ar
    14    11    12   ar
    15    11    10   ar
    16    12     7   ar
    17    13    14    1
    18    14    32    1
    19    14    33    1
    20    15    16   ar
    21    15    14    1
    22    16    34    1
    23    17    16   ar
    24    18    19   ar
    25    18    17   ar
    26    19    15   ar
    27    20    13    1
    28    20    21   ar
    29    21    37    1
    30    22    21   ar
    31    22    38    1
    32    23    22   ar
    33    24    25   ar
    34    24    23   ar
    35    25    20   ar
    36    26     3    1
    37    27     3    1
    38    30    10    1
    39    31    11    1
    40    35    17    1
    41    36    19    1
    42    39    23    1
    43    40    24    1
    44    41    25    1
