@<TRIPOS>MOLECULE
./Mol12.log
 49 52 0 0 0
SMALL
GASTEIGER

@<TRIPOS>ATOM
      1 C          -5.4312   -2.3607    2.0709 C.3     1  UNL1       -0.2538
      2 S          -5.7424   -0.6227    1.7031 S.O2    1  UNL1        1.0968
      3 O          -4.8653    0.1932    2.5757 O.2     1  UNL1       -0.5324
      4 O          -7.2034   -0.3851    1.6458 O.2     1  UNL1       -0.5300
      5 N          -5.2280   -0.5354    0.0399 N.pl3   1  UNL1       -0.7071
      6 C          -3.8481   -0.2206   -0.2085 C.ar    1  UNL1        0.2966
      7 C          -2.9867   -1.2491   -0.6088 C.ar    1  UNL1       -0.0902
      8 C          -1.6410   -1.0005   -0.8718 C.ar    1  UNL1       -0.2213
      9 C          -1.1261    0.3013   -0.7435 C.ar    1  UNL1        0.2147
     10 C          -1.9934    1.3345   -0.3467 C.ar    1  UNL1       -0.0703
     11 C          -3.3369    1.0754   -0.0778 C.ar    1  UNL1       -0.2208
     12 N           0.2451    0.5929   -1.0468 N.am    1  UNL1       -0.3095
     13 C           0.5628    1.8947   -1.6592 C.3     1  UNL1       -0.0019
     14 C           1.2089    2.9073   -0.7336 C.ar    1  UNL1        0.1555
     15 C           0.9929    2.9847    0.6842 C.ar    1  UNL1       -0.1190
     16 C           1.6701    4.0209    1.2720 C.ar    1  UNL1       -0.1935
     17 S           2.5876    4.9290    0.1122 S.2     1  UNL1        0.0484
     18 C           2.0580    3.8944   -1.1765 C.ar    1  UNL1       -0.2696
     19 C           1.2493   -0.3195   -0.7369 C.2     1  UNL1        0.5802
     20 O           1.0496   -1.3689   -0.1539 O.2     1  UNL1       -0.4930
     21 C           2.6745    0.0737   -1.1732 C.3     1  UNL1       -0.0399
     22 N           3.6170   -0.9945   -0.9603 N.ar    1  UNL1        0.2925
     23 N           4.1427   -1.6429   -2.0458 N.ar    1  UNL1       -0.2163
     24 N           4.9756   -2.5414   -1.6482 N.ar    1  UNL1       -0.3471
     25 C           5.0234   -2.5121   -0.2675 C.ar    1  UNL1        0.4188
     26 C           5.7780   -3.2764    0.6401 C.ar    1  UNL1       -0.2608
     27 C           5.6180   -3.0050    1.9915 C.ar    1  UNL1       -0.0386
     28 C           4.7241   -1.9994    2.4412 C.ar    1  UNL1       -0.1203
     29 C           3.9672   -1.2386    1.5596 C.ar    1  UNL1       -0.1212
     30 C           4.1385   -1.5137    0.1929 C.ar    1  UNL1       -0.0851
     31 H          -4.3591   -2.5563    1.9385 H       1  UNL1        0.1108
     32 H          -5.7217   -2.5066    3.1200 H       1  UNL1        0.1076
     33 H          -6.0458   -2.9691    1.3969 H       1  UNL1        0.1051
     34 H          -5.8784    0.1426   -0.3671 H       1  UNL1        0.3485
     35 H          -3.3893   -2.2558   -0.7360 H       1  UNL1        0.1022
     36 H          -0.9916   -1.8162   -1.1775 H       1  UNL1        0.1516
     37 H          -1.6232    2.3520   -0.2186 H       1  UNL1        0.0814
     38 H          -3.9871    1.8834    0.2608 H       1  UNL1        0.1445
     39 H           1.2046    1.7394   -2.5398 H       1  UNL1        0.0921
     40 H          -0.3828    2.2908   -2.0532 H       1  UNL1        0.0216
     41 H           0.3679    2.2886    1.2433 H       1  UNL1        0.0945
     42 H           1.6857    4.3027    2.3229 H       1  UNL1        0.1784
     43 H           2.4033    4.0736   -2.1934 H       1  UNL1        0.1771
     44 H           2.7093    0.2904   -2.2498 H       1  UNL1        0.0060
     45 H           2.9977    0.9809   -0.6386 H       1  UNL1        0.0085
     46 H           6.4591   -4.0487    0.2797 H       1  UNL1        0.1269
     47 H           6.1852   -3.5760    2.7294 H       1  UNL1        0.0823
     48 H           4.6235   -1.8247    3.5148 H       1  UNL1        0.0994
     49 H           3.2652   -0.4835    1.9141 H       1  UNL1        0.0996
@<TRIPOS>BOND
     1     1    32    1
     2     2     1    1
     3     2     3    2
     4     4     2    2
     5     5     2    1
     6     6     5    1
     7     6    11   ar
     8     7     6   ar
     9     8     7   ar
    10     8     9   ar
    11     9    10   ar
    12    10    11   ar
    13    10    37    1
    14    11    38    1
    15    12     9    1
    16    12    19   am
    17    13    12    1
    18    13    14    1
    19    14    15   ar
    20    15    41    1
    21    15    16   ar
    22    16    42    1
    23    17    16   ar
    24    18    14   ar
    25    18    17   ar
    26    19    20    2
    27    21    22    1
    28    21    19    1
    29    21    45    1
    30    22    30   ar
    31    23    24   ar
    32    23    22   ar
    33    24    25   ar
    34    25    30   ar
    35    25    26   ar
    36    26    27   ar
    37    27    28   ar
    38    27    47    1
    39    28    48    1
    40    29    49    1
    41    29    28   ar
    42    30    29   ar
    43    31     1    1
    44    33     1    1
    45    34     5    1
    46    35     7    1
    47    36     8    1
    48    39    13    1
    49    40    13    1
    50    43    18    1
    51    44    21    1
    52    46    26    1
