@<TRIPOS>MOLECULE
./Mol18.log
 51 55 0 0 0
SMALL
GASTEIGER

@<TRIPOS>ATOM
      1 C          -8.2687   -2.5035    0.8061 C.3     1  UNL1       -0.1506
      2 N          -7.2349   -1.5457    0.4645 N.ar    1  UNL1        0.3309
      3 C          -5.9081   -1.7793    0.2843 C.ar    1  UNL1       -0.2286
      4 C          -5.2992   -0.5463    0.0569 C.ar    1  UNL1       -0.0772
      5 C          -6.3853    0.3706    0.1308 C.ar    1  UNL1        0.0988
      6 N          -7.5450   -0.2368    0.3760 N.ar    1  UNL1       -0.4564
      7 C          -3.8813   -0.2668   -0.2045 C.ar    1  UNL1        0.1113
      8 C          -3.0122   -1.2549   -0.7061 C.ar    1  UNL1       -0.0916
      9 C          -1.6662   -0.9969   -0.9498 C.ar    1  UNL1       -0.1956
     10 C          -1.1336    0.2789   -0.7007 C.ar    1  UNL1        0.2310
     11 C          -1.9871    1.2754   -0.2032 C.ar    1  UNL1       -0.0685
     12 C          -3.3344    1.0050    0.0370 C.ar    1  UNL1       -0.2005
     13 N           0.2403    0.5859   -0.9904 N.am    1  UNL1       -0.4347
     14 C           0.5511    1.9150   -1.5311 C.3     1  UNL1        0.1419
     15 C           1.0748    2.9259   -0.5307 C.ar    1  UNL1        0.1551
     16 C           1.6069    4.1991   -0.9287 C.ar    1  UNL1       -0.2094
     17 C           2.0096    4.9677    0.1303 C.ar    1  UNL1       -0.1545
     18 S           1.7526    4.1556    1.6438 S.2     1  UNL1        0.0110
     19 C           1.0936    2.7661    0.8338 C.ar    1  UNL1       -0.1843
     20 C           1.2419   -0.3419   -0.7373 C.2     1  UNL1        0.6044
     21 O           1.0443   -1.4204   -0.2079 O.2     1  UNL1       -0.5083
     22 C           2.6655    0.0664   -1.1715 C.3     1  UNL1       -0.0221
     23 N           3.6172   -0.9943   -0.9605 N.ar    1  UNL1        0.3014
     24 N           4.1423   -1.6430   -2.0454 N.ar    1  UNL1       -0.2299
     25 N           4.9759   -2.5413   -1.6482 N.ar    1  UNL1       -0.3438
     26 C           5.0235   -2.5121   -0.2676 C.ar    1  UNL1        0.4177
     27 C           5.7781   -3.2762    0.6402 C.ar    1  UNL1       -0.2711
     28 C           5.6178   -3.0052    1.9917 C.ar    1  UNL1       -0.0333
     29 C           4.7242   -1.9996    2.4414 C.ar    1  UNL1       -0.1251
     30 C           3.9677   -1.2386    1.5593 C.ar    1  UNL1       -0.1308
     31 C           4.1380   -1.5138    0.1925 C.ar    1  UNL1       -0.0708
     32 H          -8.4924   -2.4753    1.8849 H       1  UNL1        0.0836
     33 H          -9.1816   -2.2554    0.2481 H       1  UNL1        0.0837
     34 H          -7.9341   -3.5129    0.5315 H       1  UNL1        0.0686
     35 H          -5.4954   -2.7825    0.3489 H       1  UNL1        0.1525
     36 H          -6.3682    1.4493   -0.0133 H       1  UNL1        0.0868
     37 H          -3.4015   -2.2492   -0.9356 H       1  UNL1        0.0826
     38 H          -1.0271   -1.7878   -1.3349 H       1  UNL1        0.1474
     39 H          -1.6000    2.2703    0.0209 H       1  UNL1        0.0467
     40 H          -3.9642    1.7973    0.4464 H       1  UNL1        0.1131
     41 H           1.2719    1.8170   -2.3582 H       1  UNL1        0.0617
     42 H          -0.3713    2.2955   -1.9941 H       1  UNL1        0.0123
     43 H           1.6855    4.5245   -1.9674 H       1  UNL1        0.1127
     44 H           2.4476    5.9635    0.1110 H       1  UNL1        0.1706
     45 H           0.7485    1.9111    1.4115 H       1  UNL1        0.1566
     46 H           2.6960    0.2808   -2.2490 H       1  UNL1        0.0183
     47 H           2.9834    0.9747   -0.6356 H       1  UNL1       -0.0292
     48 H           6.4594   -4.0483    0.2798 H       1  UNL1        0.1293
     49 H           6.1848   -3.5764    2.7297 H       1  UNL1        0.0811
     50 H           4.6238   -1.8244    3.5149 H       1  UNL1        0.0987
     51 H           3.2681   -0.4816    1.9146 H       1  UNL1        0.1066
@<TRIPOS>BOND
     1     1    32    1
     2     2     1    1
     3     3    35    1
     4     3     2   ar
     5     4     5   ar
     6     4     3   ar
     7     5     6   ar
     8     6     2   ar
     9     7    12   ar
    10     7     4    1
    11     8     7   ar
    12     9     8   ar
    13     9    10   ar
    14    10    11   ar
    15    11    39    1
    16    11    12   ar
    17    12    40    1
    18    13    20   am
    19    13    10    1
    20    14    13    1
    21    14    15    1
    22    15    19   ar
    23    16    15   ar
    24    16    17   ar
    25    17    18   ar
    26    19    45    1
    27    19    18   ar
    28    20    21    2
    29    22    23    1
    30    22    20    1
    31    22    47    1
    32    23    31   ar
    33    24    25   ar
    34    24    23   ar
    35    25    26   ar
    36    26    31   ar
    37    26    27   ar
    38    27    28   ar
    39    28    29   ar
    40    28    49    1
    41    29    50    1
    42    30    51    1
    43    30    29   ar
    44    31    30   ar
    45    33     1    1
    46    34     1    1
    47    36     5    1
    48    37     8    1
    49    38     9    1
    50    41    14    1
    51    42    14    1
    52    43    16    1
    53    44    17    1
    54    46    22    1
    55    48    27    1
