@<TRIPOS>MOLECULE
./Mol16.log
 54 58 0 0 0
SMALL
GASTEIGER

@<TRIPOS>ATOM
      1 C           2.4417    9.2066    2.6012 C.3     1  UNL1        0.1484
      2 O           2.7753    8.3486    1.5061 O.3     1  UNL1       -0.3815
      3 C           3.5818    8.8582    0.5449 C.ar    1  UNL1        0.6406
      4 N           3.9736   10.1217    0.6595 N.ar    1  UNL1       -0.5069
      5 C           4.7770   10.6278   -0.2905 C.ar    1  UNL1        0.2178
      6 C           5.2173    9.8912   -1.3830 C.ar    1  UNL1       -0.2930
      7 C           4.7970    8.5600   -1.4866 C.ar    1  UNL1        0.0979
      8 C           3.9614    7.9913   -0.5201 C.ar    1  UNL1       -0.2738
      9 C           3.5350    6.5714   -0.6179 C.ar    1  UNL1        0.1331
     10 C           4.4362    5.5905   -1.0729 C.ar    1  UNL1       -0.1126
     11 C           4.0639    4.2567   -1.2252 C.ar    1  UNL1       -0.1754
     12 C           2.7549    3.8517   -0.9184 C.ar    1  UNL1        0.2244
     13 C           1.8475    4.8173   -0.4536 C.ar    1  UNL1       -0.0741
     14 C           2.2310    6.1499   -0.3073 C.ar    1  UNL1       -0.1832
     15 N           2.3229    2.4950   -1.1092 N.am    1  UNL1       -0.4284
     16 C           0.9413    2.2679   -1.5530 C.3     1  UNL1        0.1039
     17 C          -0.0442    1.8907   -0.4655 C.ar    1  UNL1        0.1648
     18 C          -1.3733    1.4306   -0.7557 C.ar    1  UNL1       -0.2002
     19 C          -2.1052    1.1605    0.3693 C.ar    1  UNL1       -0.1550
     20 S          -1.1894    1.4580    1.8146 S.2     1  UNL1        0.0165
     21 C           0.1939    1.9532    0.8862 C.ar    1  UNL1       -0.1980
     22 C           3.1767    1.4298   -0.8488 C.2     1  UNL1        0.6226
     23 O           4.2985    1.5590   -0.3942 O.2     1  UNL1       -0.5102
     24 C           2.6217    0.0259   -1.1703 C.3     1  UNL1       -0.0632
     25 N           3.6071   -1.0035   -0.9600 N.ar    1  UNL1        0.3402
     26 N           4.1362   -1.6488   -2.0452 N.ar    1  UNL1       -0.2330
     27 N           4.9787   -2.5388   -1.6484 N.ar    1  UNL1       -0.3417
     28 C           5.0316   -2.5045   -0.2680 C.ar    1  UNL1        0.4109
     29 C           5.7795   -3.2748    0.6400 C.ar    1  UNL1       -0.2526
     30 C           5.6092   -3.0131    1.9921 C.ar    1  UNL1       -0.0464
     31 C           4.7187   -2.0048    2.4417 C.ar    1  UNL1       -0.1138
     32 C           3.9755   -1.2313    1.5590 C.ar    1  UNL1       -0.1318
     33 C           4.1482   -1.5043    0.1920 C.ar    1  UNL1       -0.0954
     34 H           1.9026   10.1021    2.2560 H       1  UNL1        0.0106
     35 H           1.8026    8.6012    3.2571 H       1  UNL1        0.0417
     36 H           3.3452    9.5326    3.1388 H       1  UNL1        0.0119
     37 H           5.0725   11.6737   -0.1586 H       1  UNL1        0.0467
     38 H           5.8636   10.3406   -2.1385 H       1  UNL1        0.1187
     39 H           5.1073    7.9550   -2.3412 H       1  UNL1        0.0572
     40 H           5.4668    5.8704   -1.3005 H       1  UNL1        0.0945
     41 H           4.7962    3.5289   -1.5650 H       1  UNL1        0.1432
     42 H           0.8286    4.5329   -0.1874 H       1  UNL1        0.0482
     43 H           1.5034    6.8718    0.0601 H       1  UNL1        0.1242
     44 H           0.6088    3.1898   -2.0521 H       1  UNL1        0.0205
     45 H           0.9297    1.4948   -2.3371 H       1  UNL1        0.0772
     46 H          -1.7637    1.3056   -1.7670 H       1  UNL1        0.1092
     47 H          -3.1292    0.7981    0.4351 H       1  UNL1        0.1680
     48 H           1.1041    2.2717    1.3902 H       1  UNL1        0.1636
     49 H           1.7239   -0.1782   -0.5655 H       1  UNL1       -0.0188
     50 H           2.3402   -0.0471   -2.2300 H       1  UNL1        0.0195
     51 H           6.4628   -4.0452    0.2795 H       1  UNL1        0.1244
     52 H           6.1718   -3.5884    2.7304 H       1  UNL1        0.0838
     53 H           4.6208   -1.8273    3.5151 H       1  UNL1        0.0970
     54 H           3.3087   -0.4446    1.9126 H       1  UNL1        0.1079
@<TRIPOS>BOND
     1     1    35    1
     2     1    36    1
     3     2     1    1
     4     3     4   ar
     5     3     2    1
     6     5    37    1
     7     5     4   ar
     8     6     5   ar
     9     7     6   ar
    10     7     8   ar
    11     8     3   ar
    12     9    14   ar
    13     9     8    1
    14    10     9   ar
    15    11    12   ar
    16    11    10   ar
    17    12    13   ar
    18    13    42    1
    19    13    14   ar
    20    14    43    1
    21    15    12    1
    22    15    22   am
    23    16    15    1
    24    16    17    1
    25    17    21   ar
    26    18    17   ar
    27    18    19   ar
    28    19    20   ar
    29    21    48    1
    30    21    20   ar
    31    22    23    2
    32    24    25    1
    33    24    22    1
    34    24    49    1
    35    25    33   ar
    36    26    27   ar
    37    26    25   ar
    38    27    28   ar
    39    28    33   ar
    40    28    29   ar
    41    29    30   ar
    42    30    31   ar
    43    30    52    1
    44    31    53    1
    45    32    54    1
    46    32    31   ar
    47    33    32   ar
    48    34     1    1
    49    38     6    1
    50    39     7    1
    51    40    10    1
    52    41    11    1
    53    44    16    1
    54    45    16    1
    55    46    18    1
    56    47    19    1
    57    50    24    1
    58    51    29    1
