@<TRIPOS>MOLECULE
./Mol15.log
 50 54 0 0 0
SMALL
GASTEIGER

@<TRIPOS>ATOM
      1 O           1.0420   -1.3975   -0.1980 O.2     1  UNL1       -0.5037
      2 C           1.2468   -0.3239   -0.7326 C.2     1  UNL1        0.5975
      3 C           2.6719    0.0717   -1.1730 C.3     1  UNL1       -0.0001
      4 N           3.6170   -0.9945   -0.9605 N.ar    1  UNL1        0.3120
      5 N           4.1428   -1.6428   -2.0457 N.ar    1  UNL1       -0.2353
      6 N           4.9759   -2.5412   -1.6483 N.ar    1  UNL1       -0.3377
      7 C           5.0232   -2.5122   -0.2676 C.ar    1  UNL1        0.4050
      8 C           5.7779   -3.2763    0.6402 C.ar    1  UNL1       -0.2602
      9 C           5.6179   -3.0051    1.9917 C.ar    1  UNL1       -0.0412
     10 C           4.7244   -1.9995    2.4415 C.ar    1  UNL1       -0.1094
     11 C           3.9677   -1.2386    1.5595 C.ar    1  UNL1       -0.1429
     12 C           4.1379   -1.5138    0.1927 C.ar    1  UNL1       -0.0753
     13 N           0.2511    0.6136   -0.9844 N.am    1  UNL1       -0.4478
     14 C           0.5775    1.9406   -1.5223 C.3     1  UNL1        0.1403
     15 C           1.1111    2.9430   -0.5187 C.ar    1  UNL1        0.1451
     16 C           1.6689    4.2063   -0.9131 C.ar    1  UNL1       -0.1933
     17 C           2.0760    4.9682    0.1490 C.ar    1  UNL1       -0.1542
     18 S           1.7919    4.1617    1.6606 S.2     1  UNL1        0.0129
     19 C           1.1153    2.7837    0.8460 C.ar    1  UNL1       -0.1908
     20 C          -1.1236    0.3232   -0.6910 C.ar    1  UNL1        0.2857
     21 C          -1.9685    1.3398   -0.2180 C.ar    1  UNL1       -0.1132
     22 C          -3.3189    1.0886    0.0232 C.ar    1  UNL1       -0.1199
     23 C          -3.8748   -0.1830   -0.1904 C.ar    1  UNL1       -0.1376
     24 C          -3.0162   -1.1931   -0.6632 C.ar    1  UNL1        0.0680
     25 C          -1.6685   -0.9537   -0.9109 C.ar    1  UNL1       -0.2489
     26 C          -5.3115   -0.4880    0.0594 C.ar    1  UNL1        0.4615
     27 C          -6.2097    0.4617    0.5836 C.ar    1  UNL1       -0.3209
     28 C          -7.5403    0.1045    0.7909 C.ar    1  UNL1        0.1051
     29 C          -7.9526   -1.1908    0.4732 C.ar    1  UNL1       -0.2736
     30 C          -6.9935   -2.0682   -0.0400 C.ar    1  UNL1        0.2930
     31 N          -5.7160   -1.7387   -0.2433 N.ar    1  UNL1       -0.4967
     32 H           2.7006    0.2813   -2.2515 H       1  UNL1        0.0102
     33 H           2.9978    0.9800   -0.6417 H       1  UNL1       -0.0338
     34 H           6.4590   -4.0486    0.2797 H       1  UNL1        0.1282
     35 H           6.1847   -3.5764    2.7296 H       1  UNL1        0.0816
     36 H           4.6239   -1.8245    3.5150 H       1  UNL1        0.0948
     37 H           3.2680   -0.4819    1.9148 H       1  UNL1        0.1111
     38 H           1.2985    1.8343   -2.3477 H       1  UNL1        0.0672
     39 H          -0.3388    2.3326   -1.9876 H       1  UNL1        0.0141
     40 H           1.7628    4.5292   -1.9513 H       1  UNL1        0.1067
     41 H           2.5323    5.9559    0.1330 H       1  UNL1        0.1682
     42 H           0.7503    1.9351    1.4208 H       1  UNL1        0.1605
     43 H          -1.5744    2.3371   -0.0190 H       1  UNL1        0.0498
     44 H          -3.9328    1.9125    0.3890 H       1  UNL1        0.1041
     45 H          -3.4364   -2.1823   -0.8413 H       1  UNL1        0.0383
     46 H          -1.0356   -1.7616   -1.2696 H       1  UNL1        0.1583
     47 H          -5.8782    1.4695    0.8328 H       1  UNL1        0.1214
     48 H          -8.2466    0.8317    1.1982 H       1  UNL1        0.0644
     49 H          -8.9843   -1.5157    0.6187 H       1  UNL1        0.1089
     50 H          -7.2690   -3.0956   -0.3024 H       1  UNL1        0.0226
@<TRIPOS>BOND
     1     2     1    2
     2     3     4    1
     3     3     2    1
     4     3    33    1
     5     4    12   ar
     6     5     6   ar
     7     5     4   ar
     8     6     7   ar
     9     7    12   ar
    10     7     8   ar
    11     8     9   ar
    12     9    10   ar
    13     9    35    1
    14    10    36    1
    15    11    37    1
    16    11    10   ar
    17    12    11   ar
    18    13     2   am
    19    13    20    1
    20    14    13    1
    21    14    15    1
    22    15    19   ar
    23    16    15   ar
    24    16    17   ar
    25    17    18   ar
    26    19    42    1
    27    19    18   ar
    28    20    21   ar
    29    21    43    1
    30    21    22   ar
    31    22    44    1
    32    23    22   ar
    33    23    26    1
    34    24    23   ar
    35    25    20   ar
    36    25    24   ar
    37    26    27   ar
    38    27    47    1
    39    27    28   ar
    40    28    48    1
    41    29    49    1
    42    29    28   ar
    43    30    29   ar
    44    31    30   ar
    45    31    26   ar
    46    32     3    1
    47    34     8    1
    48    38    14    1
    49    39    14    1
    50    40    16    1
    51    41    17    1
    52    45    24    1
    53    46    25    1
    54    50    30    1
