@<TRIPOS>MOLECULE
./Mol19.log
 48 52 0 0 0
SMALL
GASTEIGER

@<TRIPOS>ATOM
      1 O           1.0447   -1.3602   -0.1638 O.2     1  UNL1       -0.5133
      2 C           1.2538   -0.2989   -0.7224 C.2     1  UNL1        0.6175
      3 C           2.6796    0.0786   -1.1751 C.3     1  UNL1       -0.0120
      4 N           3.6169   -0.9944   -0.9606 N.ar    1  UNL1        0.3004
      5 N           4.1434   -1.6424   -2.0456 N.ar    1  UNL1       -0.2288
      6 N           4.9757   -2.5416   -1.6481 N.ar    1  UNL1       -0.3464
      7 C           5.0229   -2.5124   -0.2676 C.ar    1  UNL1        0.4245
      8 C           5.7778   -3.2764    0.6401 C.ar    1  UNL1       -0.2727
      9 C           5.6184   -3.0048    1.9916 C.ar    1  UNL1       -0.0452
     10 C           4.7246   -1.9994    2.4414 C.ar    1  UNL1       -0.1052
     11 C           3.9674   -1.2389    1.5595 C.ar    1  UNL1       -0.1365
     12 C           4.1377   -1.5138    0.1927 C.ar    1  UNL1       -0.0748
     13 N           0.2635    0.6374   -0.9920 N.am    1  UNL1       -0.4669
     14 C           0.5925    1.9470   -1.5687 C.3     1  UNL1        0.1237
     15 C           1.1405    2.9738   -0.5978 C.ar    1  UNL1        0.1642
     16 C           1.7061    4.2204   -1.0322 C.ar    1  UNL1       -0.2202
     17 C           2.1262    5.0096    0.0045 C.ar    1  UNL1       -0.1409
     18 S           1.8457    4.2499    1.5408 S.2     1  UNL1        0.0091
     19 C           1.1522    2.8544    0.7709 C.ar    1  UNL1       -0.1875
     20 C          -1.1125    0.3609   -0.6839 C.ar    1  UNL1        0.2657
     21 C          -1.9483    1.3882   -0.2182 C.ar    1  UNL1       -0.1311
     22 C          -3.2973    1.1466    0.0402 C.ar    1  UNL1       -0.1003
     23 C          -3.8648   -0.1244   -0.1532 C.ar    1  UNL1        0.0378
     24 C          -3.0136   -1.1444   -0.6185 C.ar    1  UNL1       -0.1171
     25 C          -1.6652   -0.9154   -0.8803 C.ar    1  UNL1       -0.1689
     26 C          -5.2847   -0.3859    0.1197 C.ar    1  UNL1       -0.0365
     27 C          -6.3398    0.5229    0.1438 C.ar    1  UNL1       -0.1705
     28 N          -7.4569   -0.1897    0.4418 N.ar    1  UNL1        0.0675
     29 N          -7.2235   -1.5038    0.6201 N.ar    1  UNL1       -0.4423
     30 C          -5.9130   -1.6292    0.4244 C.ar    1  UNL1        0.1257
     31 H           2.7053    0.2797   -2.2552 H       1  UNL1        0.0121
     32 H           3.0164    0.9884   -0.6531 H       1  UNL1       -0.0280
     33 H           6.4587   -4.0488    0.2797 H       1  UNL1        0.1307
     34 H           6.1857   -3.5758    2.7295 H       1  UNL1        0.0840
     35 H           4.6241   -1.8245    3.5150 H       1  UNL1        0.0923
     36 H           3.2663   -0.4833    1.9147 H       1  UNL1        0.1067
     37 H           1.3059    1.8149   -2.3971 H       1  UNL1        0.0702
     38 H          -0.3259    2.3315   -2.0362 H       1  UNL1        0.0231
     39 H           1.7961    4.5122   -2.0799 H       1  UNL1        0.1149
     40 H           2.5907    5.9924   -0.0432 H       1  UNL1        0.1645
     41 H           0.7848    2.0256    1.3725 H       1  UNL1        0.1611
     42 H          -1.5450    2.3843   -0.0303 H       1  UNL1        0.0507
     43 H          -3.9111    1.9623    0.4282 H       1  UNL1        0.0949
     44 H          -3.4185   -2.1412   -0.8036 H       1  UNL1        0.0892
     45 H          -1.0406   -1.7308   -1.2366 H       1  UNL1        0.1450
     46 H          -6.3779    1.5918   -0.0471 H       1  UNL1        0.1280
     47 H          -5.4492   -2.6082    0.5283 H       1  UNL1        0.0900
     48 H          -8.4025    0.1594    0.5290 H       1  UNL1        0.2515
@<TRIPOS>BOND
     1     2     1    2
     2     3     4    1
     3     3     2    1
     4     3    32    1
     5     4    12   ar
     6     5     6   ar
     7     5     4   ar
     8     6     7   ar
     9     7    12   ar
    10     7     8   ar
    11     8     9   ar
    12     9    10   ar
    13     9    34    1
    14    10    35    1
    15    11    36    1
    16    11    10   ar
    17    12    11   ar
    18    13     2   am
    19    13    20    1
    20    14    13    1
    21    14    15    1
    22    15    19   ar
    23    16    15   ar
    24    16    17   ar
    25    17    18   ar
    26    19    41    1
    27    19    18   ar
    28    20    21   ar
    29    21    42    1
    30    21    22   ar
    31    22    43    1
    32    23    22   ar
    33    23    26    1
    34    24    23   ar
    35    25    20   ar
    36    25    24   ar
    37    26    27   ar
    38    26    30   ar
    39    27    28   ar
    40    28    48    1
    41    28    29   ar
    42    30    47    1
    43    30    29   ar
    44    31     3    1
    45    33     8    1
    46    37    14    1
    47    38    14    1
    48    39    16    1
    49    40    17    1
    50    44    24    1
    51    45    25    1
    52    46    27    1
