@<TRIPOS>MOLECULE
./Mol11.log
 52 56 0 0 0
SMALL
GASTEIGER

@<TRIPOS>ATOM
      1 O           1.0340   -1.4181   -0.2316 O.2     1  UNL1       -0.5111
      2 C           1.2424   -0.3373   -0.7487 C.2     1  UNL1        0.6189
      3 C           2.6692    0.0687   -1.1723 C.3     1  UNL1        0.0004
      4 N           3.6169   -0.9947   -0.9605 N.ar    1  UNL1        0.2908
      5 N           4.1430   -1.6430   -2.0459 N.ar    1  UNL1       -0.2261
      6 N           4.9759   -2.5411   -1.6483 N.ar    1  UNL1       -0.3388
      7 C           5.0231   -2.5121   -0.2675 C.ar    1  UNL1        0.3979
      8 C           5.7779   -3.2761    0.6400 C.ar    1  UNL1       -0.2415
      9 C           5.6178   -3.0052    1.9917 C.ar    1  UNL1       -0.0721
     10 C           4.7245   -1.9996    2.4415 C.ar    1  UNL1       -0.0885
     11 C           3.9679   -1.2384    1.5595 C.ar    1  UNL1       -0.1523
     12 C           4.1378   -1.5138    0.1928 C.ar    1  UNL1       -0.0557
     13 N           0.2452    0.6023   -0.9944 N.am    1  UNL1       -0.4460
     14 C           0.5703    1.9389   -1.5100 C.3     1  UNL1        0.0875
     15 C           1.0932    2.9287   -0.4887 C.ar    1  UNL1        0.1683
     16 C           1.6439    4.2015   -0.8618 C.ar    1  UNL1       -0.2123
     17 C           2.0434    4.9489    0.2134 C.ar    1  UNL1       -0.1461
     18 S           1.7610    4.1171    1.7114 S.2     1  UNL1        0.0150
     19 C           1.0947    2.7479    0.8734 C.ar    1  UNL1       -0.1868
     20 C          -1.1291    0.3000   -0.7166 C.ar    1  UNL1        0.2603
     21 C          -1.9779    1.3033   -0.2215 C.ar    1  UNL1       -0.0878
     22 C          -3.3286    1.0377    0.0104 C.ar    1  UNL1       -0.1518
     23 C          -3.8628   -0.2339   -0.2375 C.ar    1  UNL1       -0.0758
     24 C          -3.0126   -1.2248   -0.7511 C.ar    1  UNL1       -0.0476
     25 C          -1.6640   -0.9738   -0.9824 C.ar    1  UNL1       -0.1730
     26 C          -5.3085   -0.5920   -0.0275 C.2     1  UNL1        0.5752
     27 O          -5.8208   -1.5600   -0.5734 O.2     1  UNL1       -0.5177
     28 N          -6.0229    0.2439    0.8072 N.am    1  UNL1       -0.4656
     29 C          -7.3732   -0.0856    1.1753 C.3     1  UNL1        0.2189
     30 C          -8.4952    0.3502    0.2690 C.3     1  UNL1       -0.1297
     31 C          -8.2729    1.0506    1.5911 C.3     1  UNL1       -0.2825
     32 H           2.7049    0.2880   -2.2488 H       1  UNL1        0.0114
     33 H           2.9861    0.9738   -0.6303 H       1  UNL1       -0.0345
     34 H           6.4593   -4.0480    0.2796 H       1  UNL1        0.1259
     35 H           6.1849   -3.5764    2.7295 H       1  UNL1        0.0921
     36 H           4.6245   -1.8243    3.5150 H       1  UNL1        0.0910
     37 H           3.2694   -0.4804    1.9153 H       1  UNL1        0.1068
     38 H           1.2976    1.8459   -2.3315 H       1  UNL1        0.0803
     39 H          -0.3436    2.3344   -1.9774 H       1  UNL1        0.0355
     40 H           1.7382    4.5416   -1.8943 H       1  UNL1        0.1134
     41 H           2.4934    5.9397    0.2142 H       1  UNL1        0.1677
     42 H           0.7352    1.8872    1.4336 H       1  UNL1        0.1569
     43 H          -1.5884    2.2989   -0.0063 H       1  UNL1        0.0391
     44 H          -3.9672    1.8485    0.3669 H       1  UNL1        0.1214
     45 H          -3.4398   -2.2033   -0.9747 H       1  UNL1        0.1003
     46 H          -1.0240   -1.7635   -1.3678 H       1  UNL1        0.1416
     47 H          -5.4886    0.7804    1.4827 H       1  UNL1        0.2328
     48 H          -7.4964   -1.0502    1.6800 H       1  UNL1        0.0362
     49 H          -8.2147    0.8852   -0.6399 H       1  UNL1        0.0742
     50 H          -9.3510   -0.3202    0.1675 H       1  UNL1        0.0757
     51 H          -8.9757    0.8726    2.4076 H       1  UNL1        0.0966
     52 H          -7.8515    2.0586    1.5610 H       1  UNL1        0.1113
@<TRIPOS>BOND
     1     2     1    2
     2     3     4    1
     3     3     2    1
     4     3    33    1
     5     4    12   ar
     6     5     6   ar
     7     5     4   ar
     8     6     7   ar
     9     7    12   ar
    10     7     8   ar
    11     8     9   ar
    12     9    10   ar
    13     9    35    1
    14    10    36    1
    15    11    37    1
    16    11    10   ar
    17    12    11   ar
    18    13    20    1
    19    13     2   am
    20    14    13    1
    21    14    15    1
    22    15    19   ar
    23    16    15   ar
    24    16    17   ar
    25    17    18   ar
    26    19    42    1
    27    19    18   ar
    28    20    21   ar
    29    21    43    1
    30    21    22   ar
    31    22    44    1
    32    23    22   ar
    33    23    26    1
    34    24    23   ar
    35    25    20   ar
    36    25    24   ar
    37    26    28   am
    38    27    26    2
    39    28    29    1
    40    28    47    1
    41    29    31    1
    42    29    48    1
    43    30    29    1
    44    30    31    1
    45    31    51    1
    46    32     3    1
    47    34     8    1
    48    38    14    1
    49    39    14    1
    50    40    16    1
    51    41    17    1
    52    45    24    1
    53    46    25    1
    54    49    30    1
    55    50    30    1
    56    52    31    1
