@<TRIPOS>MOLECULE
./Mol14.log
 50 54 0 0 0
SMALL
GASTEIGER

@<TRIPOS>ATOM
      1 O           1.0177   -1.5288   -0.3629 O.2     1  UNL1       -0.5079
      2 C           1.2249   -0.4031   -0.7739 C.2     1  UNL1        0.6293
      3 C           2.6479    0.0497   -1.1621 C.3     1  UNL1       -0.0315
      4 N           3.6173   -0.9949   -0.9602 N.ar    1  UNL1        0.2687
      5 N           4.1420   -1.6429   -2.0456 N.ar    1  UNL1       -0.2149
      6 N           4.9766   -2.5400   -1.6488 N.ar    1  UNL1       -0.3421
      7 C           5.0233   -2.5128   -0.2677 C.ar    1  UNL1        0.4047
      8 C           5.7780   -3.2760    0.6401 C.ar    1  UNL1       -0.2539
      9 C           5.6170   -3.0054    1.9920 C.ar    1  UNL1       -0.0551
     10 C           4.7246   -1.9991    2.4417 C.ar    1  UNL1       -0.0894
     11 C           3.9686   -1.2376    1.5591 C.ar    1  UNL1       -0.1748
     12 C           4.1372   -1.5154    0.1927 C.ar    1  UNL1       -0.0424
     13 N           0.2251    0.5482   -0.9359 N.am    1  UNL1       -0.4765
     14 C           0.5271    1.9267   -1.3438 C.3     1  UNL1        0.1793
     15 C           1.0203    2.8263   -0.2273 C.ar    1  UNL1        0.0996
     16 C           1.6593    4.0877   -0.4768 C.ar    1  UNL1       -0.1579
     17 C           1.9897    4.7583    0.6703 C.ar    1  UNL1       -0.1721
     18 S           1.5295    3.8654    2.0865 S.2     1  UNL1        0.0381
     19 C           0.8846    2.5762    1.1165 C.ar    1  UNL1       -0.2379
     20 C          -1.1399    0.2000   -0.6514 C.ar    1  UNL1        0.3119
     21 C          -2.1484    0.5205   -1.5713 C.ar    1  UNL1       -0.1900
     22 C          -3.4818    0.2192   -1.2976 C.ar    1  UNL1       -0.0734
     23 C          -3.8501   -0.4342   -0.1090 C.ar    1  UNL1       -0.0492
     24 C          -2.8262   -0.7716    0.7943 C.ar    1  UNL1       -0.0480
     25 C          -1.4933   -0.4601    0.5345 C.ar    1  UNL1       -0.2094
     26 C          -5.2688   -0.7613    0.1791 C.ar    1  UNL1        0.3076
     27 C          -6.3175    0.0920   -0.2045 C.ar    1  UNL1       -0.3735
     28 C          -7.6348   -0.2628    0.0913 C.ar    1  UNL1        0.3929
     29 N          -7.9863   -1.3864    0.7320 N.ar    1  UNL1       -0.5683
     30 C          -6.9846   -2.1990    1.0968 C.ar    1  UNL1        0.3816
     31 C          -5.6351   -1.9406    0.8501 C.ar    1  UNL1       -0.3677
     32 H           2.6909    0.2971   -2.2324 H       1  UNL1        0.0161
     33 H           2.9343    0.9476   -0.5923 H       1  UNL1       -0.0030
     34 H           6.4605   -4.0474    0.2803 H       1  UNL1        0.1279
     35 H           6.1842   -3.5765    2.7298 H       1  UNL1        0.0859
     36 H           4.6266   -1.8216    3.5151 H       1  UNL1        0.0910
     37 H           3.2764   -0.4733    1.9141 H       1  UNL1        0.1153
     38 H           1.2563    1.9262   -2.1680 H       1  UNL1        0.0651
     39 H          -0.3923    2.3540   -1.7669 H       1  UNL1       -0.0041
     40 H           1.8661    4.4751   -1.4759 H       1  UNL1        0.0993
     41 H           2.4851    5.7222    0.7679 H       1  UNL1        0.1702
     42 H           0.4278    1.7126    1.5938 H       1  UNL1        0.1607
     43 H          -1.8921    0.9899   -2.5229 H       1  UNL1        0.1254
     44 H          -4.2428    0.4609   -2.0418 H       1  UNL1        0.0928
     45 H          -3.0768   -1.2634    1.7360 H       1  UNL1        0.0777
     46 H          -0.7226   -0.7404    1.2502 H       1  UNL1        0.1500
     47 H          -6.1116    1.0391   -0.7070 H       1  UNL1        0.1123
     48 H          -8.4561    0.4010   -0.1999 H       1  UNL1        0.0047
     49 H          -7.2770   -3.1192    1.6140 H       1  UNL1        0.0067
     50 H          -4.8800   -2.6671    1.1558 H       1  UNL1        0.1281
@<TRIPOS>BOND
     1     2     1    2
     2     3     4    1
     3     3     2    1
     4     3    33    1
     5     4    12   ar
     6     5     6   ar
     7     5     4   ar
     8     6     7   ar
     9     7    12   ar
    10     7     8   ar
    11     8     9   ar
    12     9    10   ar
    13     9    35    1
    14    10    36    1
    15    11    37    1
    16    11    10   ar
    17    12    11   ar
    18    13     2   am
    19    13    20    1
    20    14    13    1
    21    14    15    1
    22    15    19   ar
    23    16    15   ar
    24    16    17   ar
    25    17    41    1
    26    17    18   ar
    27    19    42    1
    28    19    18   ar
    29    20    25   ar
    30    21    22   ar
    31    21    20   ar
    32    22    23   ar
    33    23    26    1
    34    23    24   ar
    35    24    45    1
    36    25    24   ar
    37    25    46    1
    38    26    31   ar
    39    27    28   ar
    40    27    26   ar
    41    28    29   ar
    42    29    30   ar
    43    30    49    1
    44    31    30   ar
    45    31    50    1
    46    32     3    1
    47    34     8    1
    48    38    14    1
    49    39    14    1
    50    40    16    1
    51    43    21    1
    52    44    22    1
    53    47    27    1
    54    48    28    1
