@<TRIPOS>MOLECULE
./Mol17.log
 48 52 0 0 0
SMALL
GASTEIGER

@<TRIPOS>ATOM
      1 S          -3.2923   -0.3892    0.3779 S.2     1  UNL1        0.0180
      2 C          -3.3281    1.1083   -0.4926 C.ar    1  UNL1       -0.1937
      3 C          -1.5852   -0.5684    0.1112 C.ar    1  UNL1       -0.3093
      4 C          -2.0906    1.4505   -0.9639 C.ar    1  UNL1       -0.1162
      5 C          -1.0779    0.4871   -0.6185 C.ar    1  UNL1        0.2631
      6 N           0.2828    0.6621   -1.0199 N.am    1  UNL1       -0.4457
      7 C           1.2412    4.1853   -3.2396 C.ar    1  UNL1        0.1037
      8 C           0.8888    2.9874   -3.8956 C.ar    1  UNL1       -0.1674
      9 C           1.2849    4.1740   -1.8301 C.ar    1  UNL1       -0.1822
     10 C           0.5685    1.8404   -3.1686 C.ar    1  UNL1       -0.0534
     11 C           0.9686    3.0276   -1.1030 C.ar    1  UNL1       -0.0811
     12 C           0.6108    1.8513   -1.7710 C.ar    1  UNL1        0.3114
     13 C           1.2689   -0.2586   -0.6983 C.2     1  UNL1        0.6709
     14 C           2.6917    0.0908   -1.1777 C.3     1  UNL1       -0.1136
     15 O           1.0598   -1.2737   -0.0565 O.2     1  UNL1       -0.5490
     16 C           4.1374   -1.5137    0.1924 C.ar    1  UNL1       -0.0994
     17 N           3.6165   -0.9941   -0.9612 N.ar    1  UNL1        0.3482
     18 C           5.0222   -2.5127   -0.2672 C.ar    1  UNL1        0.4185
     19 N           4.1445   -1.6415   -2.0459 N.ar    1  UNL1       -0.2096
     20 N           4.9753   -2.5420   -1.6479 N.ar    1  UNL1       -0.3565
     21 C           3.9668   -1.2397    1.5597 C.ar    1  UNL1       -0.1188
     22 C           4.7252   -1.9991    2.4414 C.ar    1  UNL1       -0.1064
     23 C           5.7773   -3.2767    0.6403 C.ar    1  UNL1       -0.2724
     24 C           5.6194   -3.0044    1.9918 C.ar    1  UNL1       -0.0496
     25 C           2.1847    7.8127   -5.3559 C.ar    1  UNL1        0.0101
     26 N           2.4377    6.5934   -5.9051 N.ar    1  UNL1       -0.3056
     27 C           1.6010    7.8903   -4.1226 C.ar    1  UNL1       -0.1788
     28 C           2.1386    5.3423   -5.3315 C.ar    1  UNL1        0.5224
     29 C           1.2874    6.6763   -3.4523 C.ar    1  UNL1       -0.0207
     30 C           1.5460    5.4293   -3.9877 C.ar    1  UNL1       -0.1147
     31 O           2.3894    4.3259   -5.9733 O.2     1  UNL1       -0.5279
     32 H          -4.2596    1.6567   -0.6133 H       1  UNL1        0.1751
     33 H          -1.0498   -1.4281    0.4923 H       1  UNL1        0.2454
     34 H          -1.9019    2.3542   -1.5392 H       1  UNL1        0.0383
     35 H           0.8785    2.9595   -4.9827 H       1  UNL1        0.1371
     36 H           1.5955    5.0693   -1.2885 H       1  UNL1        0.1052
     37 H           0.2843    0.9234   -3.6888 H       1  UNL1        0.0756
     38 H           1.0048    3.0373   -0.0117 H       1  UNL1        0.0808
     39 H           2.7127    0.3023   -2.2540 H       1  UNL1        0.0055
     40 H           3.0430    0.9981   -0.6596 H       1  UNL1        0.0123
     41 H           3.2604   -0.4895    1.9150 H       1  UNL1        0.1071
     42 H           4.6241   -1.8246    3.5150 H       1  UNL1        0.0880
     43 H           6.4577   -4.0495    0.2794 H       1  UNL1        0.1330
     44 H           6.1871   -3.5751    2.7296 H       1  UNL1        0.0858
     45 H           2.4651    8.6826   -5.9511 H       1  UNL1        0.1216
     46 H           2.8591    6.5225   -6.8275 H       1  UNL1        0.2941
     47 H           1.3795    8.8569   -3.6737 H       1  UNL1        0.1052
     48 H           0.8038    6.7401   -2.4749 H       1  UNL1        0.0956
@<TRIPOS>BOND
     1     1     2   ar
     2     2     4   ar
     3     2    32    1
     4     3     1   ar
     5     3     5   ar
     6     4    34    1
     7     5     6    1
     8     5     4   ar
     9     6    12    1
    10     7    30    1
    11     7     9   ar
    12     8     7   ar
    13     9    36    1
    14    10     8   ar
    15    10    12   ar
    16    11     9   ar
    17    11    38    1
    18    12    11   ar
    19    13    14    1
    20    13     6   am
    21    14    40    1
    22    15    13    2
    23    16    21   ar
    24    17    14    1
    25    17    16   ar
    26    18    23   ar
    27    18    16   ar
    28    19    17   ar
    29    20    19   ar
    30    20    18   ar
    31    21    22   ar
    32    21    41    1
    33    22    42    1
    34    23    24   ar
    35    24    44    1
    36    24    22   ar
    37    25    45    1
    38    25    27   ar
    39    26    25   ar
    40    27    47    1
    41    28    26   ar
    42    28    30   ar
    43    29    27   ar
    44    29    48    1
    45    30    29   ar
    46    31    28    2
    47    33     3    1
    48    35     8    1
    49    37    10    1
    50    39    14    1
    51    43    23    1
    52    46    26    1
