@<TRIPOS>MOLECULE
./Mol13.log
 53 57 0 0 0
SMALL
GASTEIGER

@<TRIPOS>ATOM
      1 O           1.0364   -1.4984   -0.3063 O.2     1  UNL1       -0.4985
      2 C           1.2264   -0.3970   -0.7871 C.2     1  UNL1        0.5924
      3 C           2.6524    0.0533   -1.1694 C.3     1  UNL1       -0.0006
      4 N           3.6178   -0.9941   -0.9605 N.ar    1  UNL1        0.2985
      5 N           4.1424   -1.6433   -2.0458 N.ar    1  UNL1       -0.2290
      6 N           4.9762   -2.5408   -1.6484 N.ar    1  UNL1       -0.3408
      7 C           5.0230   -2.5124   -0.2676 C.ar    1  UNL1        0.4103
      8 C           5.7780   -3.2760    0.6400 C.ar    1  UNL1       -0.2531
      9 C           5.6178   -3.0052    1.9917 C.ar    1  UNL1       -0.0508
     10 C           4.7245   -1.9994    2.4416 C.ar    1  UNL1       -0.1103
     11 C           3.9679   -1.2383    1.5595 C.ar    1  UNL1       -0.1406
     12 C           4.1372   -1.5147    0.1928 C.ar    1  UNL1       -0.0749
     13 N           0.2120    0.5238   -1.0292 N.am    1  UNL1       -0.4256
     14 C           0.5190    1.8802   -1.5027 C.3     1  UNL1        0.1026
     15 C           0.9965    2.8526   -0.4429 C.ar    1  UNL1        0.1634
     16 C           1.5392    4.1417   -0.7686 C.ar    1  UNL1       -0.2121
     17 C           1.8950    4.8679    0.3362 C.ar    1  UNL1       -0.1556
     18 S           1.5795    3.9959    1.8042 S.2     1  UNL1        0.0234
     19 C           0.9598    2.6384    0.9140 C.ar    1  UNL1       -0.2016
     20 C          -1.1595    0.1917   -0.7687 C.ar    1  UNL1        0.2481
     21 C          -1.6598   -1.0979   -1.0190 C.ar    1  UNL1       -0.2150
     22 C          -3.0065   -1.3800   -0.7992 C.ar    1  UNL1       -0.1000
     23 C          -3.8816   -0.3987   -0.3178 C.ar    1  UNL1        0.3335
     24 C          -3.3840    0.8844   -0.0674 C.ar    1  UNL1       -0.2253
     25 C          -2.0396    1.1791   -0.2948 C.ar    1  UNL1       -0.0908
     26 N          -5.2624   -0.7341   -0.1212 N.pl3   1  UNL1       -0.7335
     27 S          -5.7808   -1.1625    1.4861 S.O2    1  UNL1        1.0063
     28 O          -4.8635   -0.5987    2.5097 O.2     1  UNL1       -0.4833
     29 O          -7.2259   -0.8341    1.4859 O.2     1  UNL1       -0.5198
     30 C          -5.5703   -2.9395    1.4901 C.3     1  UNL1       -0.0618
     31 C          -5.3948   -3.5992    2.8384 C.3     1  UNL1       -0.2772
     32 C          -4.2331   -3.5209    1.8855 C.3     1  UNL1       -0.0397
     33 H           2.7056    0.2983   -2.2395 H       1  UNL1        0.0124
     34 H           2.9372    0.9516   -0.5995 H       1  UNL1       -0.0300
     35 H           6.4602   -4.0475    0.2798 H       1  UNL1        0.1274
     36 H           6.1853   -3.5759    2.7296 H       1  UNL1        0.0862
     37 H           4.6254   -1.8232    3.5150 H       1  UNL1        0.0992
     38 H           3.2719   -0.4780    1.9153 H       1  UNL1        0.1063
     39 H           1.2670    1.8250   -2.3085 H       1  UNL1        0.0766
     40 H          -0.3923    2.2675   -1.9817 H       1  UNL1        0.0208
     41 H           1.6594    4.5085   -1.7892 H       1  UNL1        0.1159
     42 H           2.3300    5.8646    0.3747 H       1  UNL1        0.1717
     43 H           0.5948    1.7604    1.4432 H       1  UNL1        0.1705
     44 H          -0.9991   -1.8774   -1.3884 H       1  UNL1        0.1607
     45 H          -3.3974   -2.3748   -1.0181 H       1  UNL1        0.0825
     46 H          -4.0461    1.6558    0.3300 H       1  UNL1        0.1424
     47 H          -1.6752    2.1815   -0.0689 H       1  UNL1        0.0608
     48 H          -5.9012    0.0248   -0.3726 H       1  UNL1        0.3685
     49 H          -6.1851   -3.4090    0.7203 H       1  UNL1        0.1039
     50 H          -5.3640   -2.9432    3.7104 H       1  UNL1        0.1287
     51 H          -5.9068   -4.5527    2.9817 H       1  UNL1        0.1251
     52 H          -3.9171   -4.4217    1.3549 H       1  UNL1        0.0744
     53 H          -3.4392   -2.8133    2.1305 H       1  UNL1        0.0577
@<TRIPOS>BOND
     1     2     1    2
     2     3     2    1
     3     3     4    1
     4     3    34    1
     5     4    12   ar
     6     5     6   ar
     7     5     4   ar
     8     6     7   ar
     9     7    12   ar
    10     7     8   ar
    11     8     9   ar
    12     9    10   ar
    13     9    36    1
    14    10    37    1
    15    11    38    1
    16    11    10   ar
    17    12    11   ar
    18    13    20    1
    19    13     2   am
    20    14    13    1
    21    14    15    1
    22    15    19   ar
    23    16    15   ar
    24    16    17   ar
    25    17    42    1
    26    17    18   ar
    27    19    43    1
    28    19    18   ar
    29    20    25   ar
    30    21    22   ar
    31    21    20   ar
    32    22    23   ar
    33    23    26    1
    34    23    24   ar
    35    24    46    1
    36    25    24   ar
    37    25    47    1
    38    26    27    1
    39    27    28    2
    40    29    27    2
    41    30    27    1
    42    30    32    1
    43    30    31    1
    44    31    50    1
    45    32    53    1
    46    32    31    1
    47    33     3    1
    48    35     8    1
    49    39    14    1
    50    40    14    1
    51    41    16    1
    52    44    21    1
    53    45    22    1
    54    48    26    1
    55    49    30    1
    56    51    31    1
    57    52    32    1
