@<TRIPOS>MOLECULE
./Mol10.log
 45 48 0 0 0
SMALL
GASTEIGER

@<TRIPOS>ATOM
      1 N           3.1209    8.9516   -0.4871 N.am    1  UNL1       -0.7133
      2 C           4.0829    7.9702   -0.6013 C.2     1  UNL1        0.5833
      3 O           5.2773    8.2323   -0.5775 O.2     1  UNL1       -0.4983
      4 C           3.5811    6.5590   -0.7192 C.ar    1  UNL1       -0.0717
      5 C           4.4935    5.5713   -1.1187 C.ar    1  UNL1       -0.0315
      6 C           4.1105    4.2405   -1.2516 C.ar    1  UNL1       -0.1965
      7 C           2.7869    3.8565   -0.9661 C.ar    1  UNL1        0.2818
      8 C           1.8739    4.8367   -0.5407 C.ar    1  UNL1       -0.1348
      9 C           2.2681    6.1700   -0.4225 C.ar    1  UNL1       -0.1114
     10 N           2.3453    2.5036   -1.1389 N.am    1  UNL1       -0.4385
     11 C           0.9600    2.2774   -1.5735 C.3     1  UNL1        0.0941
     12 C          -0.0233    1.9274   -0.4750 C.ar    1  UNL1        0.1749
     13 C          -1.3556    1.4681   -0.7511 C.ar    1  UNL1       -0.2144
     14 C          -2.0835    1.2215    0.3819 C.ar    1  UNL1       -0.1490
     15 S          -1.1600    1.5407    1.8175 S.2     1  UNL1        0.0183
     16 C           0.2209    2.0137    0.8745 C.ar    1  UNL1       -0.2023
     17 C           3.1910    1.4318   -0.8620 C.2     1  UNL1        0.5982
     18 O           4.3089    1.5584   -0.4004 O.2     1  UNL1       -0.4938
     19 C           2.6271    0.0298   -1.1729 C.3     1  UNL1       -0.0058
     20 N           3.6073   -1.0034   -0.9601 N.ar    1  UNL1        0.3171
     21 N           4.1369   -1.6488   -2.0457 N.ar    1  UNL1       -0.2347
     22 N           4.9783   -2.5390   -1.6483 N.ar    1  UNL1       -0.3342
     23 C           5.0311   -2.5045   -0.2678 C.ar    1  UNL1        0.4042
     24 C           5.7794   -3.2747    0.6399 C.ar    1  UNL1       -0.2631
     25 C           5.6096   -3.0129    1.9921 C.ar    1  UNL1       -0.0264
     26 C           4.7189   -2.0048    2.4418 C.ar    1  UNL1       -0.1212
     27 C           3.9753   -1.2316    1.5594 C.ar    1  UNL1       -0.1366
     28 C           4.1479   -1.5044    0.1923 C.ar    1  UNL1       -0.0833
     29 H           2.2053    8.7964   -0.8923 H       1  UNL1        0.2928
     30 H           3.4774    9.8995   -0.5576 H       1  UNL1        0.3406
     31 H           5.5192    5.8753   -1.3314 H       1  UNL1        0.0898
     32 H           4.8378    3.4970   -1.5659 H       1  UNL1        0.1471
     33 H           0.8539    4.5610   -0.2717 H       1  UNL1        0.0552
     34 H           1.5415    6.8978   -0.0557 H       1  UNL1        0.1138
     35 H           0.6320    3.1898   -2.0926 H       1  UNL1        0.0248
     36 H           0.9430    1.4884   -2.3410 H       1  UNL1        0.0818
     37 H          -1.7511    1.3260   -1.7583 H       1  UNL1        0.1139
     38 H          -3.1084    0.8643    0.4589 H       1  UNL1        0.1692
     39 H           1.1350    2.3349    1.3696 H       1  UNL1        0.1670
     40 H           1.7299   -0.1640   -0.5638 H       1  UNL1       -0.0304
     41 H           2.3420   -0.0478   -2.2315 H       1  UNL1        0.0077
     42 H           6.4627   -4.0448    0.2791 H       1  UNL1        0.1294
     43 H           6.1725   -3.5878    2.7301 H       1  UNL1        0.0783
     44 H           4.6214   -1.8272    3.5152 H       1  UNL1        0.1003
     45 H           3.3079   -0.4454    1.9133 H       1  UNL1        0.1075
@<TRIPOS>BOND
     1     1    30    1
     2     2     1   am
     3     2     3    2
     4     4     9   ar
     5     4     2    1
     6     5     4   ar
     7     6     7   ar
     8     6     5   ar
     9     7     8   ar
    10     8    33    1
    11     8     9   ar
    12     9    34    1
    13    10    17   am
    14    10     7    1
    15    11    10    1
    16    11    12    1
    17    12    16   ar
    18    13    12   ar
    19    13    14   ar
    20    14    15   ar
    21    16    39    1
    22    16    15   ar
    23    17    18    2
    24    19    20    1
    25    19    40    1
    26    19    17    1
    27    20    28   ar
    28    21    22   ar
    29    21    20   ar
    30    22    23   ar
    31    23    28   ar
    32    23    24   ar
    33    24    25   ar
    34    25    26   ar
    35    25    43    1
    36    26    44    1
    37    27    45    1
    38    27    26   ar
    39    28    27   ar
    40    29     1    1
    41    31     5    1
    42    32     6    1
    43    35    11    1
    44    36    11    1
    45    37    13    1
    46    38    14    1
    47    41    19    1
    48    42    24    1
