@<TRIPOS>MOLECULE
./Mol25.log
 56 60 0 0 0
SMALL
GASTEIGER

@<TRIPOS>ATOM
      1 O           1.0633   -1.2634   -0.0509 O.2     1  UNL1       -0.5310
      2 C           1.2737   -0.2373   -0.6730 C.2     1  UNL1        0.6035
      3 C           2.6915    0.0884   -1.1864 C.3     1  UNL1       -0.0276
      4 N           3.6154   -0.9948   -0.9614 N.ar    1  UNL1        0.2798
      5 N           4.1456   -1.6419   -2.0462 N.ar    1  UNL1       -0.2182
      6 N           4.9761   -2.5416   -1.6476 N.ar    1  UNL1       -0.3465
      7 C           5.0218   -2.5122   -0.2670 C.ar    1  UNL1        0.4246
      8 C           5.7766   -3.2770    0.6400 C.ar    1  UNL1       -0.2668
      9 C           5.6193   -3.0049    1.9916 C.ar    1  UNL1       -0.0509
     10 C           4.7260   -1.9991    2.4413 C.ar    1  UNL1       -0.1070
     11 C           3.9674   -1.2393    1.5601 C.ar    1  UNL1       -0.1392
     12 C           4.1365   -1.5134    0.1927 C.ar    1  UNL1       -0.0708
     13 N           0.2889    0.6932   -0.9619 N.am    1  UNL1       -0.4016
     14 C           0.5649    1.9732   -1.6394 C.3     1  UNL1        0.0223
     15 C           0.9145    3.1418   -0.7073 C.3     1  UNL1        0.1444
     16 C           1.3172    4.4159   -1.4955 C.3     1  UNL1        0.0183
     17 C           0.9147    5.6242   -0.6013 C.3     1  UNL1        0.0063
     18 C           0.2921    5.0102    0.6744 C.3     1  UNL1        0.0289
     19 C          -0.2097    3.6306    0.2248 C.3     1  UNL1        0.1721
     20 C          -1.0618    0.4157   -0.5529 C.ar    1  UNL1        0.2311
     21 C          -2.1006    0.4745   -1.4914 C.ar    1  UNL1       -0.1434
     22 C          -3.4189    0.2298   -1.1076 C.ar    1  UNL1       -0.1122
     23 C          -3.7404   -0.0987    0.2211 C.ar    1  UNL1        0.0552
     24 C          -2.6849   -0.1732    1.1490 C.ar    1  UNL1       -0.1345
     25 C          -1.3673    0.0794    0.7728 C.ar    1  UNL1       -0.0845
     26 C          -5.1421   -0.3622    0.6289 C.ar    1  UNL1       -0.1354
     27 C          -6.2206    0.3745    0.1119 C.ar    1  UNL1        0.0883
     28 C          -7.5161    0.0807    0.5342 C.ar    1  UNL1       -0.3089
     29 C          -7.7000   -0.9410    1.4696 C.ar    1  UNL1        0.3485
     30 N          -6.6928   -1.6649    1.9768 N.ar    1  UNL1       -0.5386
     31 C          -5.4572   -1.3750    1.5564 C.ar    1  UNL1        0.3222
     32 H           2.6929    0.2495   -2.2729 H       1  UNL1        0.0229
     33 H           3.0651    1.0097   -0.7088 H       1  UNL1        0.0093
     34 H           6.4561   -4.0502    0.2786 H       1  UNL1        0.1302
     35 H           6.1868   -3.5760    2.7291 H       1  UNL1        0.0873
     36 H           4.6256   -1.8243    3.5150 H       1  UNL1        0.0946
     37 H           3.2635   -0.4873    1.9163 H       1  UNL1        0.1113
     38 H           1.3729    1.8276   -2.3698 H       1  UNL1        0.0465
     39 H          -0.3250    2.2405   -2.2280 H       1  UNL1        0.0471
     40 H           1.7679    2.8380   -0.0727 H       1  UNL1       -0.0361
     41 H           2.3892    4.4136   -1.7475 H       1  UNL1       -0.0139
     42 H           0.7711    4.4494   -2.4545 H       1  UNL1       -0.0344
     43 H           1.7724    6.2731   -0.3678 H       1  UNL1       -0.0134
     44 H           0.1769    6.2545   -1.1230 H       1  UNL1        0.0018
     45 H           1.0656    4.8825    1.4518 H       1  UNL1       -0.0178
     46 H          -0.5006    5.6376    1.1098 H       1  UNL1       -0.0193
     47 H          -1.1492    3.7340   -0.3493 H       1  UNL1       -0.0704
     48 H          -0.4138    2.9462    1.0612 H       1  UNL1       -0.0996
     49 H          -1.8785    0.6908   -2.5381 H       1  UNL1        0.1090
     50 H          -4.2053    0.2573   -1.8647 H       1  UNL1        0.0870
     51 H          -2.8997   -0.4067    2.1935 H       1  UNL1        0.0902
     52 H          -0.5697    0.0132    1.5111 H       1  UNL1        0.1282
     53 H          -6.0416    1.1860   -0.5971 H       1  UNL1        0.0623
     54 H          -8.3718    0.6425    0.1541 H       1  UNL1        0.1199
     55 H          -8.7036   -1.1910    1.8298 H       1  UNL1        0.0117
     56 H          -4.6570   -2.0006    1.9657 H       1  UNL1        0.0173
@<TRIPOS>BOND
     1     2     1    2
     2     3     4    1
     3     3     2    1
     4     3    33    1
     5     4    12   ar
     6     5     6   ar
     7     5     4   ar
     8     6     7   ar
     9     7    12   ar
    10     7     8   ar
    11     8     9   ar
    12     9    10   ar
    13     9    35    1
    14    10    36    1
    15    11    37    1
    16    11    10   ar
    17    12    11   ar
    18    13     2   am
    19    13    20    1
    20    14    13    1
    21    14    15    1
    22    15    40    1
    23    15    19    1
    24    16    15    1
    25    16    17    1
    26    17    43    1
    27    17    18    1
    28    18    46    1
    29    18    45    1
    30    19    48    1
    31    19    18    1
    32    20    25   ar
    33    21    22   ar
    34    21    20   ar
    35    22    23   ar
    36    23    26    1
    37    23    24   ar
    38    24    51    1
    39    25    24   ar
    40    25    52    1
    41    26    31   ar
    42    27    28   ar
    43    27    26   ar
    44    28    29   ar
    45    29    55    1
    46    29    30   ar
    47    31    30   ar
    48    31    56    1
    49    32     3    1
    50    34     8    1
    51    38    14    1
    52    39    14    1
    53    41    16    1
    54    42    16    1
    55    44    17    1
    56    47    19    1
    57    49    21    1
    58    50    22    1
    59    53    27    1
    60    54    28    1
