@<TRIPOS>MOLECULE
./Mol20.log
 51 55 0 0 0
SMALL
GASTEIGER

@<TRIPOS>ATOM
      1 C          -8.6740    0.4571    1.1126 C.3     1  UNL1       -0.0647
      2 N          -7.3650   -0.0571    0.7549 N.ar    1  UNL1        0.1057
      3 C          -7.0152   -1.3701    0.5872 C.ar    1  UNL1        0.0944
      4 N          -5.7492   -1.5128    0.2631 N.ar    1  UNL1       -0.4743
      5 C          -5.2304   -0.2312    0.2125 C.ar    1  UNL1        0.3246
      6 C          -6.2267    0.6832    0.5167 C.ar    1  UNL1       -0.3602
      7 C          -3.8208    0.0082   -0.1252 C.ar    1  UNL1       -0.0664
      8 C          -2.9690   -1.0757   -0.4045 C.ar    1  UNL1        0.0521
      9 C          -1.6296   -0.8844   -0.7330 C.ar    1  UNL1       -0.2391
     10 C          -1.0907    0.4113   -0.7888 C.ar    1  UNL1        0.2199
     11 C          -1.9314    1.5004   -0.5074 C.ar    1  UNL1       -0.0861
     12 C          -3.2734    1.3001   -0.1861 C.ar    1  UNL1       -0.1467
     13 N           0.2796    0.6382   -1.1647 N.am    1  UNL1       -0.3161
     14 C           0.5721    1.7739   -2.0551 C.3     1  UNL1        0.0396
     15 C           1.2942    2.9380   -1.4056 C.ar    1  UNL1        0.1274
     16 C           1.1536    3.3285   -0.0306 C.ar    1  UNL1       -0.0932
     17 C           1.8860    4.4420    0.2874 C.ar    1  UNL1       -0.1986
     18 S           2.7664    5.0440   -1.0824 S.2     1  UNL1        0.0373
     19 C           2.1445    3.7739   -2.0897 C.ar    1  UNL1       -0.2593
     20 C           1.2831   -0.1986   -0.6975 C.2     1  UNL1        0.5721
     21 O           1.0869   -1.1175    0.0788 O.2     1  UNL1       -0.5017
     22 C           2.7102    0.1061   -1.1911 C.3     1  UNL1       -0.0559
     23 N           3.6153   -0.9948   -0.9616 N.ar    1  UNL1        0.3106
     24 N           4.1461   -1.6409   -2.0458 N.ar    1  UNL1       -0.2216
     25 N           4.9759   -2.5425   -1.6473 N.ar    1  UNL1       -0.3546
     26 C           5.0215   -2.5126   -0.2672 C.ar    1  UNL1        0.4315
     27 C           5.7767   -3.2775    0.6400 C.ar    1  UNL1       -0.2782
     28 C           5.6201   -3.0044    1.9911 C.ar    1  UNL1       -0.0363
     29 C           4.7259   -1.9987    2.4408 C.ar    1  UNL1       -0.1187
     30 C           3.9664   -1.2396    1.5605 C.ar    1  UNL1       -0.1241
     31 C           4.1368   -1.5130    0.1927 C.ar    1  UNL1       -0.0918
     32 H          -8.6330    1.0094    2.0647 H       1  UNL1        0.0645
     33 H          -9.0597    1.1281    0.3289 H       1  UNL1        0.0619
     34 H          -9.3699   -0.3850    1.2258 H       1  UNL1        0.0514
     35 H          -7.7355   -2.1762    0.7174 H       1  UNL1        0.1025
     36 H          -6.2336    1.7668    0.5845 H       1  UNL1        0.1825
     37 H          -3.3836   -2.0833   -0.3653 H       1  UNL1        0.0462
     38 H          -0.9971   -1.7450   -0.9383 H       1  UNL1        0.1459
     39 H          -1.5431    2.5198   -0.5303 H       1  UNL1        0.0751
     40 H          -3.8952    2.1726    0.0263 H       1  UNL1        0.0868
     41 H           1.1456    1.4262   -2.9289 H       1  UNL1        0.0736
     42 H          -0.3959    2.1081   -2.4520 H       1  UNL1        0.0146
     43 H           0.5419    2.7893    0.6926 H       1  UNL1        0.0772
     44 H           1.9641    4.9429    1.2501 H       1  UNL1        0.1741
     45 H           2.4432    3.7151   -3.1351 H       1  UNL1        0.1769
     46 H           2.7432    0.2891   -2.2725 H       1  UNL1        0.0043
     47 H           3.0813    1.0149   -0.6898 H       1  UNL1        0.0192
     48 H           6.4558   -4.0512    0.2787 H       1  UNL1        0.1293
     49 H           6.1878   -3.5754    2.7288 H       1  UNL1        0.0814
     50 H           4.6242   -1.8251    3.5146 H       1  UNL1        0.0936
     51 H           3.2549   -0.4939    1.9137 H       1  UNL1        0.1112
@<TRIPOS>BOND
     1     1    32    1
     2     2     6   ar
     3     2     1    1
     4     3     2   ar
     5     4     3   ar
     6     4     5   ar
     7     5     6   ar
     8     6    36    1
     9     7     5    1
    10     7    12   ar
    11     8     7   ar
    12     9     8   ar
    13     9    10   ar
    14    10    11   ar
    15    11    12   ar
    16    11    39    1
    17    12    40    1
    18    13    10    1
    19    13    20   am
    20    14    13    1
    21    14    15    1
    22    15    16   ar
    23    16    43    1
    24    16    17   ar
    25    17    44    1
    26    18    17   ar
    27    19    15   ar
    28    19    18   ar
    29    20    21    2
    30    22    23    1
    31    22    20    1
    32    22    47    1
    33    23    31   ar
    34    24    25   ar
    35    24    23   ar
    36    25    26   ar
    37    26    31   ar
    38    26    27   ar
    39    27    28   ar
    40    28    49    1
    41    28    29   ar
    42    29    50    1
    43    30    51    1
    44    30    29   ar
    45    31    30   ar
    46    33     1    1
    47    34     1    1
    48    35     3    1
    49    37     8    1
    50    38     9    1
    51    41    14    1
    52    42    14    1
    53    45    19    1
    54    46    22    1
    55    48    27    1
