@<TRIPOS>MOLECULE
./Mol22.log
 55 58 0 0 0
SMALL
GASTEIGER

@<TRIPOS>ATOM
      1 C           2.1721    4.6506   -2.0779 C.3     1  UNL1       -0.1818
      2 C           0.9250    4.5302   -1.1895 C.3     1  UNL1        0.2484
      3 C           0.9374    5.6014   -0.0909 C.3     1  UNL1       -0.1538
      4 C           0.7740    3.1295   -0.5663 C.3     1  UNL1        0.0701
      5 C           0.5640    1.9999   -1.5842 C.3     1  UNL1        0.0637
      6 N           0.2931    0.6962   -0.9536 N.am    1  UNL1       -0.4444
      7 C           1.2733   -0.2386   -0.6726 C.2     1  UNL1        0.6199
      8 O           1.0579   -1.2692   -0.0593 O.2     1  UNL1       -0.5293
      9 C           2.6918    0.0889   -1.1832 C.3     1  UNL1       -0.0579
     10 N           3.6155   -0.9949   -0.9611 N.ar    1  UNL1        0.2897
     11 N           4.1455   -1.6415   -2.0460 N.ar    1  UNL1       -0.2101
     12 N           4.9760   -2.5414   -1.6479 N.ar    1  UNL1       -0.3519
     13 C           5.0218   -2.5127   -0.2672 C.ar    1  UNL1        0.4286
     14 C           5.7766   -3.2770    0.6401 C.ar    1  UNL1       -0.2765
     15 C           5.6191   -3.0046    1.9916 C.ar    1  UNL1       -0.0257
     16 C           4.7260   -1.9987    2.4415 C.ar    1  UNL1       -0.1205
     17 C           3.9674   -1.2395    1.5598 C.ar    1  UNL1       -0.1351
     18 C           4.1367   -1.5138    0.1926 C.ar    1  UNL1       -0.0785
     19 C          -1.0494    0.4479   -0.5017 C.ar    1  UNL1        0.3161
     20 C          -1.3282    0.1789    0.8447 C.ar    1  UNL1       -0.1580
     21 C          -2.6398   -0.0460    1.2581 C.ar    1  UNL1       -0.0718
     22 C          -3.7127   -0.0047    0.3487 C.ar    1  UNL1        0.0173
     23 C          -3.4183    0.2630   -1.0000 C.ar    1  UNL1       -0.0970
     24 C          -2.1061    0.4779   -1.4206 C.ar    1  UNL1       -0.1920
     25 C          -5.1067   -0.2419    0.7969 C.ar    1  UNL1       -0.1247
     26 C          -5.4250   -1.2130    1.7609 C.ar    1  UNL1        0.0981
     27 C          -6.7546   -1.3902    2.1399 C.ar    1  UNL1       -0.3051
     28 C          -7.7343   -0.5932    1.5417 C.ar    1  UNL1        0.3399
     29 N          -7.4614    0.3452    0.6246 N.ar    1  UNL1       -0.5268
     30 C          -6.1808    0.5058    0.2757 C.ar    1  UNL1        0.3016
     31 H           3.0903    4.4471   -1.4986 H       1  UNL1        0.0342
     32 H           2.1517    3.9542   -2.9316 H       1  UNL1        0.0134
     33 H           2.2621    5.6678   -2.4918 H       1  UNL1        0.0469
     34 H           0.0355    4.7094   -1.8246 H       1  UNL1       -0.0508
     35 H           1.8058    5.4701    0.5781 H       1  UNL1        0.0206
     36 H           0.9999    6.6135   -0.5218 H       1  UNL1        0.0326
     37 H           0.0275    5.5543    0.5292 H       1  UNL1        0.0302
     38 H           1.6630    2.9070    0.0537 H       1  UNL1       -0.0126
     39 H          -0.0885    3.1335    0.1219 H       1  UNL1       -0.0534
     40 H          -0.2914    2.2459   -2.2314 H       1  UNL1        0.0169
     41 H           1.4278    1.9022   -2.2531 H       1  UNL1        0.0815
     42 H           2.6935    0.2548   -2.2690 H       1  UNL1        0.0164
     43 H           3.0652    1.0076   -0.7000 H       1  UNL1        0.0180
     44 H           6.4566   -4.0501    0.2792 H       1  UNL1        0.1306
     45 H           6.1871   -3.5753    2.7291 H       1  UNL1        0.0788
     46 H           4.6262   -1.8234    3.5150 H       1  UNL1        0.0951
     47 H           3.2634   -0.4871    1.9155 H       1  UNL1        0.1136
     48 H          -0.5147    0.1396    1.5680 H       1  UNL1        0.1275
     49 H          -2.8363   -0.2323    2.3160 H       1  UNL1        0.0755
     50 H          -4.2209    0.2645   -1.7400 H       1  UNL1        0.0959
     51 H          -1.9003    0.6466   -2.4795 H       1  UNL1        0.1255
     52 H          -4.6394   -1.8391    2.1898 H       1  UNL1        0.0660
     53 H          -7.0315   -2.1436    2.8801 H       1  UNL1        0.1179
     54 H          -8.7890   -0.7131    1.8106 H       1  UNL1        0.0132
     55 H          -5.9832    1.2963   -0.4562 H       1  UNL1        0.0138
@<TRIPOS>BOND
     1     1    31    1
     2     1     2    1
     3     2     4    1
     4     2     3    1
     5     3    37    1
     6     3    35    1
     7     4    39    1
     8     4    38    1
     9     5     6    1
    10     5     4    1
    11     6     7   am
    12     6    19    1
    13     7     8    2
    14     9     7    1
    15     9    43    1
    16    10     9    1
    17    10    18   ar
    18    11    12   ar
    19    11    10   ar
    20    12    13   ar
    21    13    18   ar
    22    13    14   ar
    23    14    15   ar
    24    15    45    1
    25    15    16   ar
    26    16    46    1
    27    17    47    1
    28    17    16   ar
    29    18    17   ar
    30    19    20   ar
    31    20    21   ar
    32    20    48    1
    33    21    49    1
    34    22    25    1
    35    22    21   ar
    36    23    22   ar
    37    24    23   ar
    38    24    19   ar
    39    25    26   ar
    40    26    27   ar
    41    26    52    1
    42    27    53    1
    43    28    54    1
    44    28    27   ar
    45    29    28   ar
    46    30    29   ar
    47    30    25   ar
    48    32     1    1
    49    33     1    1
    50    34     2    1
    51    36     3    1
    52    40     5    1
    53    41     5    1
    54    42     9    1
    55    44    14    1
    56    50    23    1
    57    51    24    1
    58    55    30    1
