@<TRIPOS>MOLECULE
./Mol27.log
 49 53 0 0 0
SMALL
GASTEIGER

@<TRIPOS>ATOM
      1 O           1.0225   -1.4962   -0.3016 O.2     1  UNL1       -0.4964
      2 C           1.2290   -0.3948   -0.7743 C.2     1  UNL1        0.5031
      3 C           2.6530    0.0570   -1.1539 C.3     1  UNL1        0.1066
      4 N           3.6178   -0.9952   -0.9594 N.ar    1  UNL1        0.2578
      5 N           4.1410   -1.6416   -2.0444 N.ar    1  UNL1       -0.2308
      6 N           4.9766   -2.5403   -1.6490 N.ar    1  UNL1       -0.3397
      7 C           5.0238   -2.5136   -0.2684 C.ar    1  UNL1        0.4118
      8 C           5.7784   -3.2765    0.6405 C.ar    1  UNL1       -0.2656
      9 C           5.6170   -3.0049    1.9920 C.ar    1  UNL1       -0.0549
     10 C           4.7238   -1.9985    2.4413 C.ar    1  UNL1       -0.1059
     11 C           3.9681   -1.2374    1.5585 C.ar    1  UNL1       -0.1379
     12 C           4.1382   -1.5161    0.1923 C.ar    1  UNL1       -0.0524
     13 N           0.2122    0.5217   -1.0077 N.am    1  UNL1       -0.2779
     14 C           0.4522    1.9134   -1.4204 C.3     1  UNL1       -0.1411
     15 C           0.5975    2.8661   -0.2571 C.ar    1  UNL1        0.3221
     16 C          -0.2525    3.8969    0.0468 C.ar    1  UNL1       -0.3218
     17 S           0.2981    4.7325    1.4653 S.2     1  UNL1        0.0457
     18 C           1.6406    3.6164    1.5448 C.ar    1  UNL1        0.0616
     19 N           1.6690    2.7168    0.6040 N.ar    1  UNL1       -0.3417
     20 C          -1.1322    0.1806   -0.6283 C.ar    1  UNL1        0.2903
     21 C          -2.1515    0.2260   -1.5871 C.ar    1  UNL1       -0.2122
     22 C          -3.4687   -0.0658   -1.2334 C.ar    1  UNL1       -0.0770
     23 C          -3.8022   -0.4267    0.0843 C.ar    1  UNL1        0.0209
     24 C          -2.7641   -0.4817    1.0335 C.ar    1  UNL1       -0.0769
     25 C          -1.4482   -0.1809    0.6868 C.ar    1  UNL1       -0.1930
     26 C          -5.2020   -0.7448    0.4597 C.ar    1  UNL1       -0.1123
     27 C          -6.2955   -0.0402   -0.0703 C.ar    1  UNL1        0.0680
     28 C          -7.5879   -0.3852    0.3211 C.ar    1  UNL1       -0.2845
     29 C          -7.7542   -1.4257    1.2390 C.ar    1  UNL1        0.3391
     30 N          -6.7323   -2.1205    1.7573 N.ar    1  UNL1       -0.5375
     31 C          -5.4994   -1.7811    1.3667 C.ar    1  UNL1        0.3048
     32 H           2.7088    0.3249   -2.2184 H       1  UNL1       -0.0087
     33 H           2.9247    0.9390   -0.5534 H       1  UNL1       -0.0551
     34 H           6.4608   -4.0483    0.2814 H       1  UNL1        0.1288
     35 H           6.1838   -3.5759    2.7303 H       1  UNL1        0.0864
     36 H           4.6248   -1.8225    3.5149 H       1  UNL1        0.0912
     37 H           3.2722   -0.4744    1.9091 H       1  UNL1        0.1040
     38 H           1.3518    1.9573   -2.0478 H       1  UNL1        0.1273
     39 H          -0.3857    2.2371   -2.0516 H       1  UNL1        0.0652
     40 H          -1.1580    4.2020   -0.4728 H       1  UNL1        0.1995
     41 H           2.3876    3.6974    2.3358 H       1  UNL1        0.1311
     42 H          -1.9087    0.4690   -2.6240 H       1  UNL1        0.1272
     43 H          -4.2425   -0.0513   -2.0036 H       1  UNL1        0.0878
     44 H          -2.9935   -0.7383    2.0695 H       1  UNL1        0.0792
     45 H          -0.6599   -0.2271    1.4373 H       1  UNL1        0.1459
     46 H          -6.1315    0.7863   -0.7658 H       1  UNL1        0.0610
     47 H          -8.4552    0.1508   -0.0698 H       1  UNL1        0.1130
     48 H          -8.7552   -1.7163    1.5748 H       1  UNL1        0.0137
     49 H          -4.6859   -2.3838    1.7841 H       1  UNL1        0.0304
@<TRIPOS>BOND
     1     2     1    2
     2     3     4    1
     3     3     2    1
     4     3    33    1
     5     4    12   ar
     6     5     6   ar
     7     5     4   ar
     8     6     7   ar
     9     7    12   ar
    10     7     8   ar
    11     8     9   ar
    12     9    10   ar
    13     9    35    1
    14    10    36    1
    15    11    37    1
    16    11    10   ar
    17    12    11   ar
    18    13     2   am
    19    13    20    1
    20    14    13    1
    21    14    15    1
    22    15    16   ar
    23    15    19   ar
    24    16    17   ar
    25    17    18   ar
    26    18    41    1
    27    19    18   ar
    28    20    25   ar
    29    21    22   ar
    30    21    20   ar
    31    22    23   ar
    32    23    26    1
    33    23    24   ar
    34    24    44    1
    35    25    24   ar
    36    25    45    1
    37    26    31   ar
    38    27    28   ar
    39    27    26   ar
    40    28    29   ar
    41    29    48    1
    42    29    30   ar
    43    31    30   ar
    44    31    49    1
    45    32     3    1
    46    34     8    1
    47    38    14    1
    48    39    14    1
    49    40    16    1
    50    42    21    1
    51    43    22    1
    52    46    27    1
    53    47    28    1
