@<TRIPOS>MOLECULE
./Mol26.log
 54 58 0 0 0
SMALL
GASTEIGER

@<TRIPOS>ATOM
      1 O           1.0304   -1.4820   -0.2945 O.2     1  UNL1       -0.5235
      2 C           1.2298   -0.3804   -0.7719 C.2     1  UNL1        0.6520
      3 C           2.6566    0.0594   -1.1700 C.3     1  UNL1        0.0209
      4 N           3.6167   -0.9948   -0.9605 N.ar    1  UNL1        0.2314
      5 N           4.1421   -1.6429   -2.0450 N.ar    1  UNL1       -0.2061
      6 N           4.9768   -2.5405   -1.6483 N.ar    1  UNL1       -0.3494
      7 C           5.0235   -2.5123   -0.2677 C.ar    1  UNL1        0.4242
      8 C           5.7778   -3.2760    0.6403 C.ar    1  UNL1       -0.2789
      9 C           5.6172   -3.0057    1.9919 C.ar    1  UNL1       -0.0354
     10 C           4.7245   -1.9994    2.4416 C.ar    1  UNL1       -0.0990
     11 C           3.9688   -1.2381    1.5589 C.ar    1  UNL1       -0.1896
     12 C           4.1373   -1.5144    0.1922 C.ar    1  UNL1       -0.0354
     13 N           0.2140    0.5413   -0.9915 N.am    1  UNL1       -0.5586
     14 C           0.4486    1.9013   -1.4890 C.3     1  UNL1        0.1863
     15 C           0.2808    3.0096   -0.4267 C.3     1  UNL1        0.2087
     16 C           0.8208    4.3530   -0.9743 C.3     1  UNL1       -0.0855
     17 C           2.2836    4.3978   -0.4504 C.3     1  UNL1        0.2255
     18 O           2.4819    3.2087    0.3270 O.3     1  UNL1       -0.4052
     19 C           1.1934    2.8082    0.7867 C.3     1  UNL1        0.1155
     20 C          -1.1393    0.1821   -0.6654 C.ar    1  UNL1        0.3511
     21 C          -2.1529    0.3433   -1.6196 C.ar    1  UNL1       -0.1923
     22 C          -3.4759    0.0307   -1.3087 C.ar    1  UNL1       -0.0847
     23 C          -3.8278   -0.4654   -0.0411 C.ar    1  UNL1        0.0409
     24 C          -2.7978   -0.6362    0.9024 C.ar    1  UNL1       -0.0784
     25 C          -1.4753   -0.3179    0.6003 C.ar    1  UNL1       -0.2008
     26 C          -5.2347   -0.8024    0.2869 C.ar    1  UNL1       -0.1576
     27 C          -6.3136   -0.0283   -0.1712 C.ar    1  UNL1        0.1108
     28 C          -7.6142   -0.3962    0.1689 C.ar    1  UNL1       -0.3218
     29 C          -7.8031   -1.5288    0.9654 C.ar    1  UNL1        0.3660
     30 N          -6.7954   -2.2903    1.4131 N.ar    1  UNL1       -0.5462
     31 C          -5.5545   -1.9275    1.0726 C.ar    1  UNL1        0.3188
     32 H           2.7016    0.2878   -2.2442 H       1  UNL1       -0.0057
     33 H           2.9577    0.9653   -0.6184 H       1  UNL1        0.0055
     34 H           6.4598   -4.0477    0.2802 H       1  UNL1        0.1324
     35 H           6.1842   -3.5768    2.7299 H       1  UNL1        0.0812
     36 H           4.6258   -1.8223    3.5150 H       1  UNL1        0.0899
     37 H           3.2744   -0.4761    1.9140 H       1  UNL1        0.1397
     38 H           1.4574    1.9544   -1.9121 H       1  UNL1        0.0599
     39 H          -0.2402    2.1082   -2.3230 H       1  UNL1       -0.0073
     40 H          -0.7769    3.0773   -0.1308 H       1  UNL1       -0.0954
     41 H           0.7683    4.4036   -2.0732 H       1  UNL1       -0.0146
     42 H           0.2375    5.1986   -0.5817 H       1  UNL1        0.0322
     43 H           3.0395    4.3992   -1.2499 H       1  UNL1        0.0082
     44 H           2.4508    5.2901    0.1809 H       1  UNL1       -0.0027
     45 H           0.8590    3.4399    1.6345 H       1  UNL1        0.0214
     46 H           1.2628    1.7693    1.1389 H       1  UNL1        0.0099
     47 H          -1.9071    0.6929   -2.6239 H       1  UNL1        0.1249
     48 H          -4.2415    0.1392   -2.0798 H       1  UNL1        0.0817
     49 H          -3.0372   -1.0014    1.9029 H       1  UNL1        0.0833
     50 H          -0.6971   -0.4647    1.3478 H       1  UNL1        0.1401
     51 H          -6.1319    0.8671   -0.7701 H       1  UNL1        0.0558
     52 H          -8.4706    0.1916   -0.1680 H       1  UNL1        0.1210
     53 H          -8.8110   -1.8406    1.2585 H       1  UNL1        0.0079
     54 H          -4.7531   -2.5835    1.4284 H       1  UNL1        0.0269
@<TRIPOS>BOND
     1     2     1    2
     2     3     2    1
     3     3    33    1
     4     4     3    1
     5     4    12   ar
     6     5     6   ar
     7     5     4   ar
     8     6     7   ar
     9     7    12   ar
    10     7     8   ar
    11     8     9   ar
    12     9    35    1
    13     9    10   ar
    14    10    36    1
    15    11    37    1
    16    11    10   ar
    17    12    11   ar
    18    13     2   am
    19    13    20    1
    20    14    13    1
    21    14    15    1
    22    15    40    1
    23    15    19    1
    24    16    15    1
    25    16    17    1
    26    16    42    1
    27    17    18    1
    28    17    44    1
    29    18    19    1
    30    19    46    1
    31    19    45    1
    32    20    25   ar
    33    21    22   ar
    34    21    20   ar
    35    22    23   ar
    36    23    26    1
    37    23    24   ar
    38    24    49    1
    39    25    24   ar
    40    25    50    1
    41    26    31   ar
    42    27    28   ar
    43    27    26   ar
    44    28    29   ar
    45    29    53    1
    46    29    30   ar
    47    31    30   ar
    48    31    54    1
    49    32     3    1
    50    34     8    1
    51    38    14    1
    52    39    14    1
    53    41    16    1
    54    43    17    1
    55    47    21    1
    56    48    22    1
    57    51    27    1
    58    52    28    1
