@<TRIPOS>MOLECULE
./Mol23.log
 50 54 0 0 0
SMALL
GASTEIGER

@<TRIPOS>ATOM
      1 O           1.0648   -1.2119   -0.0121 O.2     1  UNL1       -0.5138
      2 C           1.2840   -0.2054   -0.6629 C.2     1  UNL1        0.6013
      3 C           2.7023    0.0978   -1.1876 C.3     1  UNL1       -0.0514
      4 N           3.6152   -0.9948   -0.9614 N.ar    1  UNL1        0.2817
      5 N           4.1461   -1.6415   -2.0462 N.ar    1  UNL1       -0.2245
      6 N           4.9757   -2.5419   -1.6475 N.ar    1  UNL1       -0.3376
      7 C           5.0216   -2.5124   -0.2670 C.ar    1  UNL1        0.4122
      8 C           5.7767   -3.2770    0.6400 C.ar    1  UNL1       -0.2720
      9 C           5.6195   -3.0047    1.9915 C.ar    1  UNL1       -0.0505
     10 C           4.7261   -1.9990    2.4413 C.ar    1  UNL1       -0.1028
     11 C           3.9671   -1.2396    1.5601 C.ar    1  UNL1       -0.1466
     12 C           4.1366   -1.5133    0.1926 C.ar    1  UNL1       -0.0654
     13 N           0.3065    0.7230   -0.9721 N.am    1  UNL1       -0.4447
     14 C           0.5789    2.0022   -1.6520 C.3     1  UNL1        0.1344
     15 C           0.8501    3.1580   -0.7086 C.3     1  UNL1       -0.0924
     16 C           0.6187    4.5727   -1.1901 C.3     1  UNL1       -0.2067
     17 C          -0.2904    3.9734   -0.1428 C.3     1  UNL1       -0.0867
     18 C          -1.0343    0.4913   -0.5047 C.ar    1  UNL1        0.2889
     19 C          -1.3119    0.3222    0.8573 C.ar    1  UNL1       -0.1853
     20 C          -2.6218    0.1158    1.2853 C.ar    1  UNL1       -0.0717
     21 C          -3.6930    0.0767    0.3736 C.ar    1  UNL1        0.0415
     22 C          -3.3988    0.2417   -0.9916 C.ar    1  UNL1       -0.1141
     23 C          -2.0876    0.4373   -1.4256 C.ar    1  UNL1       -0.1311
     24 C          -5.0861   -0.1365    0.8372 C.ar    1  UNL1       -0.1565
     25 C          -5.3986   -1.0325    1.8730 C.ar    1  UNL1        0.0994
     26 C          -6.7273   -1.1899    2.2632 C.ar    1  UNL1       -0.3101
     27 C          -7.7120   -0.4488    1.6041 C.ar    1  UNL1        0.3573
     28 N          -7.4448    0.4178    0.6175 N.ar    1  UNL1       -0.5410
     29 C          -6.1648    0.5603    0.2585 C.ar    1  UNL1        0.3234
     30 H           2.7005    0.2542   -2.2746 H       1  UNL1        0.0419
     31 H           3.0896    1.0169   -0.7158 H       1  UNL1        0.0200
     32 H           6.4563   -4.0502    0.2786 H       1  UNL1        0.1339
     33 H           6.1871   -3.5758    2.7290 H       1  UNL1        0.0886
     34 H           4.6257   -1.8243    3.5149 H       1  UNL1        0.0927
     35 H           3.2609   -0.4895    1.9157 H       1  UNL1        0.1166
     36 H           1.4229    1.8700   -2.3429 H       1  UNL1        0.0142
     37 H          -0.2914    2.2415   -2.2812 H       1  UNL1        0.0898
     38 H           1.7106    3.0103   -0.0478 H       1  UNL1        0.0922
     39 H           1.3311    5.3421   -0.8853 H       1  UNL1        0.0956
     40 H           0.2156    4.7076   -2.1977 H       1  UNL1        0.0771
     41 H          -1.3061    3.7039   -0.4414 H       1  UNL1        0.0335
     42 H          -0.2039    4.3324    0.8850 H       1  UNL1        0.0611
     43 H          -0.4989    0.3519    1.5819 H       1  UNL1        0.1307
     44 H          -2.8192    0.0097    2.3541 H       1  UNL1        0.0796
     45 H          -4.2001    0.1771   -1.7302 H       1  UNL1        0.0983
     46 H          -1.8793    0.5264   -2.4938 H       1  UNL1        0.0892
     47 H          -4.6090   -1.6177    2.3500 H       1  UNL1        0.0702
     48 H          -6.9999   -1.8858    3.0592 H       1  UNL1        0.1183
     49 H          -8.7662   -0.5554    1.8806 H       1  UNL1        0.0087
     50 H          -5.9720    1.2931   -0.5325 H       1  UNL1        0.0124
@<TRIPOS>BOND
     1     2    13   am
     2     2     1    2
     3     3     2    1
     4     3    31    1
     5     4     3    1
     6     4    12   ar
     7     5     6   ar
     8     5     4   ar
     9     6     7   ar
    10     7     8   ar
    11     7    12   ar
    12     8     9   ar
    13     9    33    1
    14     9    10   ar
    15    10    34    1
    16    11    10   ar
    17    11    35    1
    18    12    11   ar
    19    13    14    1
    20    13    18    1
    21    14    15    1
    22    15    16    1
    23    15    38    1
    24    15    17    1
    25    16    17    1
    26    16    39    1
    27    17    42    1
    28    18    19   ar
    29    19    20   ar
    30    19    43    1
    31    20    44    1
    32    21    24    1
    33    21    20   ar
    34    22    21   ar
    35    23    22   ar
    36    23    18   ar
    37    24    25   ar
    38    25    26   ar
    39    25    47    1
    40    26    48    1
    41    27    49    1
    42    27    26   ar
    43    28    27   ar
    44    29    28   ar
    45    29    24   ar
    46    30     3    1
    47    32     8    1
    48    36    14    1
    49    37    14    1
    50    40    16    1
    51    41    17    1
    52    45    22    1
    53    46    23    1
    54    50    29    1
