@<TRIPOS>MOLECULE
./Mol24.log
 53 57 0 0 0
SMALL
GASTEIGER

@<TRIPOS>ATOM
      1 O           1.0480    0.2211    0.6099 O.2     1  UNL1       -0.5373
      2 C           1.2970   -0.2286   -0.5019 C.2     1  UNL1        0.6333
      3 C           2.6658    0.0879   -1.1372 C.3     1  UNL1       -0.0926
      4 N           3.6165   -0.9955   -0.9585 N.ar    1  UNL1        0.2863
      5 N           4.1394   -1.6424   -2.0445 N.ar    1  UNL1       -0.1753
      6 N           4.9739   -2.5435   -1.6494 N.ar    1  UNL1       -0.3634
      7 C           5.0277   -2.5124   -0.2696 C.ar    1  UNL1        0.4137
      8 C           5.7812   -3.2771    0.6398 C.ar    1  UNL1       -0.2672
      9 C           5.6159   -3.0049    1.9904 C.ar    1  UNL1       -0.0375
     10 C           4.7198   -2.0002    2.4405 C.ar    1  UNL1       -0.1085
     11 C           3.9646   -1.2352    1.5605 C.ar    1  UNL1       -0.1437
     12 C           4.1458   -1.5129    0.1943 C.ar    1  UNL1       -0.0881
     13 N           0.4309   -1.0401   -1.2001 N.am    1  UNL1       -0.5401
     14 C           0.6910   -1.5240   -2.5725 C.3     1  UNL1        0.3477
     15 C           0.1538   -0.6037   -3.6650 C.3     1  UNL1       -0.0279
     16 C           0.3213   -1.0692   -5.1397 C.3     1  UNL1       -0.0245
     17 C          -1.0833   -0.4804   -5.4439 C.3     1  UNL1        0.0284
     18 C          -1.3790   -0.4954   -3.9197 C.3     1  UNL1        0.0843
     19 C          -0.8259   -1.3874   -0.5910 C.ar    1  UNL1        0.3060
     20 C          -1.7233   -0.4000   -0.1650 C.ar    1  UNL1       -0.1782
     21 C          -2.9420   -0.7594    0.4069 C.ar    1  UNL1       -0.0641
     22 C          -3.3056   -2.1093    0.5693 C.ar    1  UNL1        0.0207
     23 C          -2.3917   -3.0896    0.1442 C.ar    1  UNL1       -0.0959
     24 C          -1.1660   -2.7348   -0.4196 C.ar    1  UNL1       -0.1608
     25 C          -4.6082   -2.4849    1.1726 C.ar    1  UNL1       -0.1367
     26 C          -5.7878   -1.7706    0.9051 C.ar    1  UNL1        0.0972
     27 C          -6.9822   -2.1726    1.5005 C.ar    1  UNL1       -0.3007
     28 C          -6.9677   -3.2841    2.3473 C.ar    1  UNL1        0.3364
     29 N          -5.8582   -3.9816    2.6276 N.ar    1  UNL1       -0.5342
     30 C          -4.7202   -3.5793    2.0527 C.ar    1  UNL1        0.3232
     31 H           2.6246    0.2912   -2.2137 H       1  UNL1        0.0297
     32 H           3.0308    0.9846   -0.6174 H       1  UNL1        0.0582
     33 H           6.4638   -4.0495    0.2825 H       1  UNL1        0.1335
     34 H           6.1818   -3.5757    2.7294 H       1  UNL1        0.0838
     35 H           4.6171   -1.8286    3.5143 H       1  UNL1        0.0991
     36 H           3.2545   -0.4805    1.8998 H       1  UNL1        0.1299
     37 H           1.7691   -1.6853   -2.7077 H       1  UNL1       -0.0920
     38 H           0.2215   -2.5145   -2.6671 H       1  UNL1        0.0166
     39 H           0.5841    0.4055   -3.5396 H       1  UNL1        0.0342
     40 H           1.1830   -0.6820   -5.7038 H       1  UNL1       -0.0062
     41 H           0.3242   -2.1696   -5.2118 H       1  UNL1        0.0059
     42 H          -1.0174    0.5460   -5.8376 H       1  UNL1       -0.0034
     43 H          -1.7489   -1.0628   -6.0980 H       1  UNL1       -0.0105
     44 H          -1.8996   -1.4175   -3.6149 H       1  UNL1       -0.0523
     45 H          -1.9129    0.3631   -3.4863 H       1  UNL1       -0.0482
     46 H          -1.4568    0.6515   -0.2666 H       1  UNL1        0.1412
     47 H          -3.6155    0.0266    0.7548 H       1  UNL1        0.0797
     48 H          -2.6452   -4.1468    0.2421 H       1  UNL1        0.0907
     49 H          -0.4668   -3.5151   -0.7266 H       1  UNL1        0.1076
     50 H          -5.7716   -0.9212    0.2182 H       1  UNL1        0.0577
     51 H          -7.9149   -1.6399    1.3037 H       1  UNL1        0.1180
     52 H          -7.8901   -3.6318    2.8243 H       1  UNL1        0.0149
     53 H          -3.8251   -4.1505    2.3211 H       1  UNL1        0.0118
@<TRIPOS>BOND
     1     2     3    1
     2     2     1    2
     3     3    32    1
     4     4     3    1
     5     5     4   ar
     6     6     7   ar
     7     6     5   ar
     8     7    12   ar
     9     8     7   ar
    10     8     9   ar
    11     9    10   ar
    12    10    11   ar
    13    10    35    1
    14    11    36    1
    15    12     4   ar
    16    12    11   ar
    17    13     2   am
    18    14    15    1
    19    14    13    1
    20    15    18    1
    21    15    39    1
    22    16    40    1
    23    16    17    1
    24    16    15    1
    25    17    18    1
    26    17    42    1
    27    18    45    1
    28    19    13    1
    29    19    20   ar
    30    20    46    1
    31    21    20   ar
    32    21    47    1
    33    22    21   ar
    34    23    24   ar
    35    23    22   ar
    36    24    19   ar
    37    25    22    1
    38    25    26   ar
    39    26    50    1
    40    27    26   ar
    41    27    51    1
    42    28    27   ar
    43    29    30   ar
    44    29    28   ar
    45    30    25   ar
    46    31     3    1
    47    33     8    1
    48    34     9    1
    49    37    14    1
    50    38    14    1
    51    41    16    1
    52    43    17    1
    53    44    18    1
    54    48    23    1
    55    49    24    1
    56    52    28    1
    57    53    30    1
