@<TRIPOS>MOLECULE
./Mol28.log
 53 57 0 0 0
SMALL
GASTEIGER

@<TRIPOS>ATOM
      1 CL         -3.8133    0.6448   -0.2841 Cl      1  UNL1       -0.1134
      2 C          -2.2110    1.1871    0.1935 C.ar    1  UNL1        0.0645
      3 C          -1.8948    1.2829    1.5517 C.ar    1  UNL1       -0.0532
      4 C          -0.6163    1.7116    1.9097 C.ar    1  UNL1       -0.1448
      5 C           0.3298    2.0407    0.9325 C.ar    1  UNL1       -0.0526
      6 C           0.0044    1.9427   -0.4261 C.ar    1  UNL1        0.1207
      7 C          -1.2787    1.5081   -0.7922 C.ar    1  UNL1       -0.1434
      8 C           0.9847    2.3090   -1.5358 C.3     1  UNL1        0.0503
      9 N           2.3792    2.5137   -1.1300 N.am    1  UNL1       -0.4077
     10 C           3.2227    1.4361   -0.8784 C.2     1  UNL1        0.6349
     11 O           4.3571    1.5546   -0.4558 O.2     1  UNL1       -0.5096
     12 C           2.6363    0.0384   -1.1690 C.3     1  UNL1       -0.0612
     13 N           3.6068   -1.0041   -0.9599 N.ar    1  UNL1        0.3299
     14 N           4.1372   -1.6482   -2.0457 N.ar    1  UNL1       -0.2303
     15 N           4.9783   -2.5387   -1.6485 N.ar    1  UNL1       -0.3386
     16 C           5.0313   -2.5049   -0.2680 C.ar    1  UNL1        0.4103
     17 C           5.7791   -3.2749    0.6400 C.ar    1  UNL1       -0.2542
     18 C           5.6094   -3.0127    1.9922 C.ar    1  UNL1       -0.0493
     19 C           4.7191   -2.0044    2.4420 C.ar    1  UNL1       -0.1100
     20 C           3.9753   -1.2316    1.5591 C.ar    1  UNL1       -0.1373
     21 C           4.1483   -1.5046    0.1923 C.ar    1  UNL1       -0.0870
     22 C           2.8493    3.8625   -0.9804 C.ar    1  UNL1        0.2398
     23 C           1.9894    4.8543   -0.4828 C.ar    1  UNL1       -0.0958
     24 C           2.4142    6.1793   -0.3816 C.ar    1  UNL1       -0.1057
     25 C           3.7107    6.5616   -0.7624 C.ar    1  UNL1        0.0180
     26 C           4.5637    5.5564   -1.2544 C.ar    1  UNL1       -0.0711
     27 C           4.1484    4.2317   -1.3668 C.ar    1  UNL1       -0.1816
     28 C           4.1614    7.9707   -0.6526 C.ar    1  UNL1       -0.1552
     29 C           3.7918    8.7914    0.4259 C.ar    1  UNL1        0.1114
     30 C           4.2453   10.1085    0.4713 C.ar    1  UNL1       -0.3185
     31 C           5.0624   10.5718   -0.5634 C.ar    1  UNL1        0.3530
     32 N           5.4279    9.8155   -1.6076 N.ar    1  UNL1       -0.5397
     33 C           4.9806    8.5560   -1.6382 C.ar    1  UNL1        0.3416
     34 H          -2.6373    1.0232    2.3064 H       1  UNL1        0.0950
     35 H          -0.3534    1.7909    2.9667 H       1  UNL1        0.1166
     36 H           1.3244    2.3758    1.2312 H       1  UNL1        0.0688
     37 H          -1.5562    1.4168   -1.8444 H       1  UNL1        0.0953
     38 H           0.9397    1.5409   -2.3230 H       1  UNL1        0.0941
     39 H           0.6535    3.2389   -2.0199 H       1  UNL1        0.0340
     40 H           1.7451   -0.1436   -0.5479 H       1  UNL1       -0.0212
     41 H           2.3355   -0.0416   -2.2232 H       1  UNL1        0.0198
     42 H           6.4620   -4.0457    0.2798 H       1  UNL1        0.1282
     43 H           6.1721   -3.5879    2.7302 H       1  UNL1        0.0873
     44 H           4.6213   -1.8272    3.5153 H       1  UNL1        0.0963
     45 H           3.3071   -0.4459    1.9128 H       1  UNL1        0.1069
     46 H           0.9768    4.6012   -0.1661 H       1  UNL1        0.0509
     47 H           1.7119    6.9303   -0.0144 H       1  UNL1        0.0906
     48 H           5.5864    5.8089   -1.5410 H       1  UNL1        0.0940
     49 H           4.8407    3.4806   -1.7387 H       1  UNL1        0.1407
     50 H           3.1736    8.3922    1.2334 H       1  UNL1        0.0573
     51 H           3.9799   10.7656    1.3020 H       1  UNL1        0.1209
     52 H           5.4426   11.5987   -0.5545 H       1  UNL1        0.0103
     53 H           5.2745    7.9690   -2.5149 H       1  UNL1        0.0002
@<TRIPOS>BOND
     1     1     2    1
     2     2     3   ar
     3     3     4   ar
     4     3    34    1
     5     4    35    1
     6     5    36    1
     7     5     4   ar
     8     6     5   ar
     9     7     6   ar
    10     7     2   ar
    11     8     9    1
    12     8     6    1
    13     9    10   am
    14     9    22    1
    15    10    11    2
    16    12    13    1
    17    12    10    1
    18    12    40    1
    19    13    21   ar
    20    14    15   ar
    21    14    13   ar
    22    15    16   ar
    23    16    21   ar
    24    16    17   ar
    25    17    18   ar
    26    18    19   ar
    27    18    43    1
    28    19    44    1
    29    20    45    1
    30    20    19   ar
    31    21    20   ar
    32    22    23   ar
    33    23    24   ar
    34    23    46    1
    35    24    47    1
    36    25    28    1
    37    25    24   ar
    38    26    25   ar
    39    27    26   ar
    40    27    22   ar
    41    28    29   ar
    42    29    30   ar
    43    29    50    1
    44    30    51    1
    45    31    52    1
    46    31    30   ar
    47    32    31   ar
    48    33    32   ar
    49    33    28   ar
    50    37     7    1
    51    38     8    1
    52    39     8    1
    53    41    12    1
    54    42    17    1
    55    48    26    1
    56    49    27    1
    57    53    33    1
