@<TRIPOS>MOLECULE
./Mol29.log
 53 57 0 0 0
SMALL
GASTEIGER

@<TRIPOS>ATOM
      1 F           2.4706    5.8160    2.0755 F       1  UNL1       -0.1765
      2 C           2.0181    4.8831    1.2256 C.ar    1  UNL1        0.3194
      3 C           1.4914    3.6967    1.7214 C.ar    1  UNL1       -0.2666
      4 C           1.0197    2.7225    0.8367 C.ar    1  UNL1       -0.0398
      5 C           1.0742    2.9294   -0.5474 C.ar    1  UNL1        0.0926
      6 C           1.6129    4.1306   -1.0324 C.ar    1  UNL1       -0.1220
      7 C           2.0817    5.1070   -0.1544 C.ar    1  UNL1       -0.0325
      8 CL          2.7544    6.6014   -0.7588 Cl      1  UNL1       -0.0690
      9 C           0.5531    1.9087   -1.5543 C.3     1  UNL1       -0.0382
     10 N           0.2354    0.5799   -1.0210 N.am    1  UNL1       -0.3591
     11 C           1.2388   -0.3488   -0.7594 C.2     1  UNL1        0.5980
     12 O           1.0366   -1.4275   -0.2349 O.2     1  UNL1       -0.5054
     13 C           2.6661    0.0648   -1.1752 C.3     1  UNL1        0.0188
     14 N           3.6173   -0.9942   -0.9608 N.ar    1  UNL1        0.2896
     15 N           4.1430   -1.6437   -2.0464 N.ar    1  UNL1       -0.2259
     16 N           4.9757   -2.5412   -1.6482 N.ar    1  UNL1       -0.3331
     17 C           5.0230   -2.5118   -0.2673 C.ar    1  UNL1        0.3923
     18 C           5.7779   -3.2759    0.6399 C.ar    1  UNL1       -0.2454
     19 C           5.6180   -3.0052    1.9916 C.ar    1  UNL1       -0.0668
     20 C           4.7245   -2.0000    2.4416 C.ar    1  UNL1       -0.0898
     21 C           3.9678   -1.2386    1.5598 C.ar    1  UNL1       -0.1612
     22 C           4.1376   -1.5135    0.1930 C.ar    1  UNL1       -0.0540
     23 C          -1.1417    0.2699   -0.7549 C.ar    1  UNL1        0.2221
     24 C          -2.0115    1.2747   -0.3020 C.ar    1  UNL1       -0.0942
     25 C          -3.3634    1.0041   -0.0891 C.ar    1  UNL1       -0.1320
     26 C          -3.8957   -0.2765   -0.3100 C.ar    1  UNL1        0.0557
     27 C          -3.0118   -1.2755   -0.7582 C.ar    1  UNL1       -0.0910
     28 C          -1.6617   -1.0157   -0.9812 C.ar    1  UNL1       -0.1784
     29 C          -5.3331   -0.5629   -0.0816 C.ar    1  UNL1       -0.1428
     30 C          -6.0469    0.0041    0.9873 C.ar    1  UNL1        0.0932
     31 C          -7.3973   -0.3018    1.1480 C.ar    1  UNL1       -0.3091
     32 C          -8.0001   -1.1726    0.2365 C.ar    1  UNL1        0.3449
     33 N          -7.3477   -1.7251   -0.7955 N.ar    1  UNL1       -0.5303
     34 C          -6.0545   -1.4176   -0.9384 C.ar    1  UNL1        0.3203
     35 H           1.4566    3.5509    2.8022 H       1  UNL1        0.1600
     36 H           0.6063    1.7946    1.2346 H       1  UNL1        0.0849
     37 H           1.6752    4.3202   -2.1060 H       1  UNL1        0.1027
     38 H          -0.3641    2.2924   -2.0233 H       1  UNL1        0.0592
     39 H           1.2792    1.8106   -2.3754 H       1  UNL1        0.1185
     40 H           2.7069    0.2858   -2.2512 H       1  UNL1       -0.0013
     41 H           2.9780    0.9709   -0.6318 H       1  UNL1       -0.0337
     42 H           6.4594   -4.0477    0.2793 H       1  UNL1        0.1296
     43 H           6.1852   -3.5763    2.7293 H       1  UNL1        0.0914
     44 H           4.6245   -1.8249    3.5151 H       1  UNL1        0.0937
     45 H           3.2690   -0.4812    1.9161 H       1  UNL1        0.1126
     46 H          -1.6417    2.2822   -0.1076 H       1  UNL1        0.0615
     47 H          -4.0166    1.8152    0.2390 H       1  UNL1        0.0954
     48 H          -3.3812   -2.2897   -0.9210 H       1  UNL1        0.0979
     49 H          -1.0081   -1.8177   -1.3143 H       1  UNL1        0.1441
     50 H          -5.5411    0.6603    1.6993 H       1  UNL1        0.0611
     51 H          -7.9737    0.1186    1.9747 H       1  UNL1        0.1209
     52 H          -9.0570   -1.4405    0.3388 H       1  UNL1        0.0128
     53 H          -5.5535   -1.8637   -1.8040 H       1  UNL1        0.0048
@<TRIPOS>BOND
     1     2     3   ar
     2     2     1    1
     3     3    35    1
     4     4    36    1
     5     4     3   ar
     6     5     4   ar
     7     6     5   ar
     8     6     7   ar
     9     7     2   ar
    10     8     7    1
    11     9    10    1
    12     9     5    1
    13    10    11   am
    14    10    23    1
    15    11    12    2
    16    13    14    1
    17    13    11    1
    18    13    41    1
    19    14    22   ar
    20    15    16   ar
    21    15    14   ar
    22    16    17   ar
    23    17    22   ar
    24    17    18   ar
    25    18    19   ar
    26    19    20   ar
    27    19    43    1
    28    20    44    1
    29    21    45    1
    30    21    20   ar
    31    22    21   ar
    32    23    24   ar
    33    24    46    1
    34    24    25   ar
    35    25    47    1
    36    26    25   ar
    37    26    29    1
    38    27    26   ar
    39    28    23   ar
    40    28    27   ar
    41    29    30   ar
    42    30    31   ar
    43    30    50    1
    44    31    51    1
    45    32    52    1
    46    32    31   ar
    47    33    32   ar
    48    34    33   ar
    49    34    29   ar
    50    37     6    1
    51    38     9    1
    52    39     9    1
    53    40    13    1
    54    42    18    1
    55    48    27    1
    56    49    28    1
    57    53    34    1
