@<TRIPOS>MOLECULE
./Mol21.log
 48 52 0 0 0
SMALL
GASTEIGER

@<TRIPOS>ATOM
      1 O           1.0508   -1.3214   -0.1209 O.2     1  UNL1       -0.5039
      2 C           1.2629   -0.2715   -0.6996 C.2     1  UNL1        0.5819
      3 C           2.6864    0.0850   -1.1764 C.3     1  UNL1        0.0030
      4 N           3.6166   -0.9947   -0.9607 N.ar    1  UNL1        0.3132
      5 N           4.1438   -1.6418   -2.0454 N.ar    1  UNL1       -0.2326
      6 N           4.9758   -2.5417   -1.6480 N.ar    1  UNL1       -0.3468
      7 C           5.0227   -2.5126   -0.2675 C.ar    1  UNL1        0.4169
      8 C           5.7776   -3.2766    0.6402 C.ar    1  UNL1       -0.2535
      9 C           5.6186   -3.0047    1.9916 C.ar    1  UNL1       -0.0633
     10 C           4.7247   -1.9992    2.4413 C.ar    1  UNL1       -0.0934
     11 C           3.9674   -1.2390    1.5596 C.ar    1  UNL1       -0.1430
     12 C           4.1376   -1.5138    0.1925 C.ar    1  UNL1       -0.0817
     13 N           0.2794    0.6704   -0.9708 N.am    1  UNL1       -0.4298
     14 C           0.6114    1.9673   -1.5732 C.3     1  UNL1        0.1675
     15 C           1.1862    3.0036   -0.6283 C.ar    1  UNL1        0.1510
     16 C           1.7528    4.2393   -1.0918 C.ar    1  UNL1       -0.2129
     17 C           2.1988    5.0405   -0.0754 C.ar    1  UNL1       -0.1459
     18 S           1.9423    4.3057    1.4773 S.2     1  UNL1        0.0060
     19 C           1.2235    2.9045    0.7414 C.ar    1  UNL1       -0.1820
     20 C          -1.0972    0.4079   -0.6476 C.ar    1  UNL1        0.2610
     21 C          -1.9114    1.4421   -0.1588 C.ar    1  UNL1       -0.1012
     22 C          -3.2615    1.2174    0.1075 C.ar    1  UNL1       -0.1335
     23 C          -3.8422   -0.0452   -0.0939 C.ar    1  UNL1       -0.0878
     24 C          -3.0159   -1.0745   -0.5796 C.ar    1  UNL1        0.0801
     25 C          -1.6685   -0.8582   -0.8554 C.ar    1  UNL1       -0.2692
     26 C          -5.2609   -0.3089    0.1847 C.ar    1  UNL1        0.3093
     27 C          -6.2293    0.5481    0.6811 C.ar    1  UNL1       -0.2398
     28 N          -7.3831   -0.2017    0.7527 N.ar    1  UNL1       -0.2256
     29 C          -7.0803   -1.4583    0.3071 C.ar    1  UNL1        0.1893
     30 N          -5.8170   -1.5573   -0.0415 N.ar    1  UNL1       -0.4662
     31 H           2.7007    0.2723   -2.2591 H       1  UNL1        0.0077
     32 H           3.0391    0.9980   -0.6705 H       1  UNL1       -0.0366
     33 H           6.4581   -4.0494    0.2797 H       1  UNL1        0.1253
     34 H           6.1859   -3.5756    2.7295 H       1  UNL1        0.0873
     35 H           4.6240   -1.8244    3.5149 H       1  UNL1        0.0894
     36 H           3.2646   -0.4850    1.9143 H       1  UNL1        0.1108
     37 H           1.3088    1.8166   -2.4123 H       1  UNL1        0.0564
     38 H          -0.3120    2.3539   -2.0291 H       1  UNL1        0.0019
     39 H           1.8248    4.5147   -2.1453 H       1  UNL1        0.1117
     40 H           2.6697    6.0190   -0.1468 H       1  UNL1        0.1660
     41 H           0.8613    2.0873    1.3618 H       1  UNL1        0.1569
     42 H          -1.4920    2.4316    0.0284 H       1  UNL1        0.0454
     43 H          -3.8631    2.0466    0.4864 H       1  UNL1        0.0905
     44 H          -3.4562   -2.0582   -0.7448 H       1  UNL1        0.0350
     45 H          -1.0561   -1.6773   -1.2252 H       1  UNL1        0.1615
     46 H          -6.2070    1.5900    0.9837 H       1  UNL1        0.1563
     47 H          -7.8200   -2.2549    0.2602 H       1  UNL1        0.0759
     48 H          -8.2853    0.1217    1.0775 H       1  UNL1        0.2914
@<TRIPOS>BOND
     1     2     1    2
     2     3     4    1
     3     3     2    1
     4     3    32    1
     5     4    12   ar
     6     5     6   ar
     7     5     4   ar
     8     6     7   ar
     9     7    12   ar
    10     7     8   ar
    11     8     9   ar
    12     9    10   ar
    13     9    34    1
    14    10    35    1
    15    11    36    1
    16    11    10   ar
    17    12    11   ar
    18    13     2   am
    19    13    20    1
    20    14    13    1
    21    14    15    1
    22    15    19   ar
    23    16    15   ar
    24    16    17   ar
    25    17    18   ar
    26    19    41    1
    27    19    18   ar
    28    20    21   ar
    29    21    42    1
    30    21    22   ar
    31    22    43    1
    32    23    22   ar
    33    23    26    1
    34    24    23   ar
    35    25    20   ar
    36    25    24   ar
    37    26    27   ar
    38    27    28   ar
    39    27    46    1
    40    28    48    1
    41    29    28   ar
    42    30    26   ar
    43    30    29   ar
    44    31     3    1
    45    33     8    1
    46    37    14    1
    47    38    14    1
    48    39    16    1
    49    40    17    1
    50    44    24    1
    51    45    25    1
    52    47    29    1
