@<TRIPOS>MOLECULE
./Mol31.log
 53 57 0 0 0
SMALL
GASTEIGER

@<TRIPOS>ATOM
      1 F           1.7248    0.0440   -6.7199 F       1  UNL1       -0.1745
      2 C           1.9556    1.0243   -5.8255 C.ar    1  UNL1        0.2884
      3 C           1.2117    2.1960   -5.9177 C.ar    1  UNL1       -0.1973
      4 C           1.4633    3.1932   -4.9729 C.ar    1  UNL1        0.0646
      5 C           2.4229    3.0342   -3.9726 C.ar    1  UNL1       -0.0275
      6 C           3.1590    1.8418   -3.9072 C.ar    1  UNL1       -0.0633
      7 C           2.9191    0.8240   -4.8402 C.ar    1  UNL1       -0.1490
      8 C           4.2551    1.6503   -2.8680 C.3     1  UNL1        0.3177
      9 N           3.9182    2.1307   -1.5140 N.am    1  UNL1       -0.4542
     10 C           3.1062    1.4114   -0.6565 C.2     1  UNL1        0.5522
     11 O           2.7999    1.8011    0.4608 O.2     1  UNL1       -0.5313
     12 C           2.6043    0.0338   -1.1313 C.3     1  UNL1        0.0736
     13 N           3.6069   -1.0030   -0.9576 N.ar    1  UNL1        0.1417
     14 N           4.1370   -1.6450   -2.0445 N.ar    1  UNL1       -0.1059
     15 N           4.9821   -2.5365   -1.6494 N.ar    1  UNL1       -0.3893
     16 C           5.0307   -2.5097   -0.2697 C.ar    1  UNL1        0.4159
     17 C           5.7797   -3.2789    0.6398 C.ar    1  UNL1       -0.2633
     18 C           5.6090   -3.0111    1.9905 C.ar    1  UNL1       -0.0530
     19 C           4.7204   -1.9996    2.4402 C.ar    1  UNL1       -0.0965
     20 C           3.9731   -1.2274    1.5599 C.ar    1  UNL1       -0.1619
     21 C           4.1458   -1.5129    0.1941 C.ar    1  UNL1       -0.0392
     22 C           4.4769    3.3776   -1.0638 C.ar    1  UNL1        0.2870
     23 C           5.8582    3.5964   -1.1511 C.ar    1  UNL1       -0.1989
     24 C           6.4096    4.8109   -0.7439 C.ar    1  UNL1       -0.0856
     25 C           5.6032    5.8373   -0.2215 C.ar    1  UNL1        0.0438
     26 C           4.2201    5.5966   -0.1238 C.ar    1  UNL1       -0.1386
     27 C           3.6615    4.3882   -0.5362 C.ar    1  UNL1       -0.0861
     28 C           6.1914    7.1268    0.2163 C.ar    1  UNL1       -0.1455
     29 C           7.2429    7.7426   -0.4825 C.ar    1  UNL1        0.0947
     30 C           7.7544    8.9542   -0.0212 C.ar    1  UNL1       -0.2992
     31 C           7.1968    9.5228    1.1272 C.ar    1  UNL1        0.3438
     32 N           6.1980    8.9570    1.8186 N.ar    1  UNL1       -0.5406
     33 C           5.7224    7.7923    1.3661 C.ar    1  UNL1        0.3295
     34 CL          0.5454    4.6889   -5.0533 Cl      1  UNL1       -0.1043
     35 H           0.4618    2.3164   -6.6983 H       1  UNL1        0.1408
     36 H           2.5935    3.8369   -3.2562 H       1  UNL1        0.0205
     37 H           3.4604   -0.1231   -4.8012 H       1  UNL1        0.0774
     38 H           4.5495    0.5934   -2.8373 H       1  UNL1       -0.0060
     39 H           5.1431    2.2113   -3.1892 H       1  UNL1       -0.0101
     40 H           1.7309   -0.1952   -0.5055 H       1  UNL1        0.0384
     41 H           2.3044    0.0122   -2.1854 H       1  UNL1       -0.0249
     42 H           6.4629   -4.0507    0.2825 H       1  UNL1        0.1385
     43 H           6.1714   -3.5849    2.7299 H       1  UNL1        0.0899
     44 H           4.6276   -1.8191    3.5134 H       1  UNL1        0.0974
     45 H           3.3107   -0.4300    1.8978 H       1  UNL1        0.1406
     46 H           6.5143    2.8046   -1.5180 H       1  UNL1        0.1238
     47 H           7.4916    4.9463   -0.7989 H       1  UNL1        0.0873
     48 H           3.5613    6.3793    0.2571 H       1  UNL1        0.0937
     49 H           2.5879    4.2277   -0.4481 H       1  UNL1        0.1351
     50 H           7.6393    7.2862   -1.3925 H       1  UNL1        0.0603
     51 H           8.5660    9.4588   -0.5493 H       1  UNL1        0.1161
     52 H           7.5689   10.4785    1.5112 H       1  UNL1        0.0148
     53 H           4.9255    7.3394    1.9655 H       1  UNL1        0.0186
@<TRIPOS>BOND
     1     1     2    1
     2     2     3   ar
     3     3    35    1
     4     3     4   ar
     5     4    34    1
     6     5     4   ar
     7     5    36    1
     8     6     5   ar
     9     7     2   ar
    10     7     6   ar
    11     8     6    1
    12     8     9    1
    13     9    10   am
    14    10    11    2
    15    12    10    1
    16    12    40    1
    17    13    21   ar
    18    13    12    1
    19    14    13   ar
    20    15    14   ar
    21    15    16   ar
    22    16    21   ar
    23    17    16   ar
    24    17    18   ar
    25    18    19   ar
    26    19    20   ar
    27    19    44    1
    28    20    45    1
    29    21    20   ar
    30    22     9    1
    31    22    27   ar
    32    23    22   ar
    33    24    23   ar
    34    24    25   ar
    35    25    26   ar
    36    26    27   ar
    37    26    48    1
    38    27    49    1
    39    28    25    1
    40    28    33   ar
    41    29    28   ar
    42    30    29   ar
    43    30    31   ar
    44    31    52    1
    45    31    32   ar
    46    32    33   ar
    47    33    53    1
    48    37     7    1
    49    38     8    1
    50    39     8    1
    51    41    12    1
    52    42    17    1
    53    43    18    1
    54    46    23    1
    55    47    24    1
    56    50    29    1
    57    51    30    1
