@<TRIPOS>MOLECULE
./Mol35.log
 54 58 0 0 0
SMALL
GASTEIGER

@<TRIPOS>ATOM
      1 CL         -3.8423    0.4751   -0.4012 Cl      1  UNL1       -0.1153
      2 C          -2.2618    1.0438    0.1189 C.ar    1  UNL1        0.0647
      3 C          -1.9740    1.1172    1.4846 C.ar    1  UNL1       -0.0592
      4 C          -0.7129    1.5678    1.8763 C.ar    1  UNL1       -0.1534
      5 C           0.2435    1.9396    0.9250 C.ar    1  UNL1       -0.0295
      6 C          -0.0532    1.8628   -0.4417 C.ar    1  UNL1        0.1371
      7 C          -1.3187    1.4068   -0.8416 C.ar    1  UNL1       -0.1444
      8 C           0.9398    2.2749   -1.5241 C.3     1  UNL1       -0.0725
      9 N           2.3221    2.4956   -1.0881 N.am    1  UNL1       -0.3362
     10 C           3.1808    1.4300   -0.8422 C.2     1  UNL1        0.5905
     11 O           4.3049    1.5602   -0.3958 O.2     1  UNL1       -0.5115
     12 C           2.6243    0.0281   -1.1691 C.3     1  UNL1        0.0256
     13 N           3.6072   -1.0036   -0.9600 N.ar    1  UNL1        0.2981
     14 N           4.1363   -1.6489   -2.0454 N.ar    1  UNL1       -0.2207
     15 N           4.9784   -2.5388   -1.6485 N.ar    1  UNL1       -0.3441
     16 C           5.0317   -2.5045   -0.2681 C.ar    1  UNL1        0.4201
     17 C           5.7794   -3.2746    0.6401 C.ar    1  UNL1       -0.2728
     18 C           5.6091   -3.0131    1.9922 C.ar    1  UNL1       -0.0365
     19 C           4.7187   -2.0048    2.4419 C.ar    1  UNL1       -0.1227
     20 C           3.9755   -1.2315    1.5591 C.ar    1  UNL1       -0.1248
     21 C           4.1484   -1.5043    0.1921 C.ar    1  UNL1       -0.0843
     22 C           2.7674    3.8502   -0.9092 C.ar    1  UNL1        0.2090
     23 C           1.8887    4.8150   -0.3929 C.ar    1  UNL1       -0.0551
     24 C           2.2917    6.1434   -0.2646 C.ar    1  UNL1       -0.1927
     25 C           3.5839    6.5607   -0.6320 C.ar    1  UNL1        0.0812
     26 C           4.4494    5.5836   -1.1648 C.ar    1  UNL1       -0.1002
     27 C           4.0547    4.2545   -1.2960 C.ar    1  UNL1       -0.1588
     28 C           4.0041    7.9693   -0.4414 C.ar    1  UNL1       -0.1253
     29 C           3.5042    8.7406    0.5895 C.ar    1  UNL1       -0.0001
     30 C           3.8570   10.1054    0.7827 C.ar    1  UNL1       -0.2158
     31 C           4.7378   10.6737   -0.0932 C.ar    1  UNL1        0.0234
     32 N           5.2503    9.9261   -1.1103 N.ar    1  UNL1       -0.3184
     33 C           4.9756    8.5696   -1.3695 C.ar    1  UNL1        0.5438
     34 O           5.5448    8.0238   -2.3114 O.2     1  UNL1       -0.5443
     35 H          -2.7244    0.8239    2.2189 H       1  UNL1        0.0973
     36 H          -0.4721    1.6304    2.9398 H       1  UNL1        0.1168
     37 H           1.2241    2.2914    1.2494 H       1  UNL1        0.0587
     38 H          -1.5738    1.3315   -1.9006 H       1  UNL1        0.0971
     39 H           0.9217    1.5262   -2.3312 H       1  UNL1        0.1235
     40 H           0.5994    3.2109   -1.9895 H       1  UNL1        0.0658
     41 H           1.7243   -0.1797   -0.5687 H       1  UNL1       -0.0427
     42 H           2.3448   -0.0390   -2.2300 H       1  UNL1       -0.0044
     43 H           6.4629   -4.0449    0.2796 H       1  UNL1        0.1327
     44 H           6.1717   -3.5885    2.7303 H       1  UNL1        0.0837
     45 H           4.6209   -1.8275    3.5153 H       1  UNL1        0.0972
     46 H           3.3086   -0.4447    1.9124 H       1  UNL1        0.1048
     47 H           0.8788    4.5391   -0.0863 H       1  UNL1        0.0391
     48 H           1.5705    6.8705    0.1136 H       1  UNL1        0.1120
     49 H           5.4429    5.8775   -1.4957 H       1  UNL1        0.1235
     50 H           4.7555    3.5267   -1.6983 H       1  UNL1        0.1318
     51 H           2.8172    8.2808    1.3038 H       1  UNL1        0.0850
     52 H           3.4466   10.6832    1.6091 H       1  UNL1        0.1144
     53 H           5.0741   11.7095   -0.0325 H       1  UNL1        0.1155
     54 H           5.9148   10.3331   -1.7629 H       1  UNL1        0.2933
@<TRIPOS>BOND
     1     1     2    1
     2     2     3   ar
     3     3     4   ar
     4     3    35    1
     5     4    36    1
     6     5    37    1
     7     5     4   ar
     8     6     5   ar
     9     7     6   ar
    10     7     2   ar
    11     8     9    1
    12     8     6    1
    13     9    10   am
    14     9    22    1
    15    10    11    2
    16    12    13    1
    17    12    10    1
    18    12    41    1
    19    13    21   ar
    20    14    15   ar
    21    14    13   ar
    22    15    16   ar
    23    16    21   ar
    24    16    17   ar
    25    17    18   ar
    26    18    19   ar
    27    18    44    1
    28    19    45    1
    29    20    46    1
    30    20    19   ar
    31    21    20   ar
    32    22    23   ar
    33    23    24   ar
    34    23    47    1
    35    24    48    1
    36    25    24   ar
    37    25    28    1
    38    26    25   ar
    39    27    26   ar
    40    27    22   ar
    41    28    29   ar
    42    29    30   ar
    43    29    51    1
    44    30    52    1
    45    31    53    1
    46    31    30   ar
    47    32    31   ar
    48    33    32   ar
    49    33    28   ar
    50    34    33    2
    51    38     7    1
    52    39     8    1
    53    40     8    1
    54    42    12    1
    55    43    17    1
    56    49    26    1
    57    50    27    1
    58    54    32    1
