@<TRIPOS>MOLECULE
./Mol38.log
 55 59 0 0 0
SMALL
GASTEIGER

@<TRIPOS>ATOM
      1 C          -2.2510   -1.6587   -3.7459 C.3     1  UNL1        0.1642
      2 O          -1.4358   -0.8641   -2.8945 O.3     1  UNL1       -0.3136
      3 C          -1.9518   -0.4436   -1.7034 C.ar    1  UNL1        0.3344
      4 C          -3.2652   -0.6768   -1.2834 C.ar    1  UNL1       -0.3238
      5 C          -3.7193   -0.2174   -0.0318 C.ar    1  UNL1        0.1183
      6 C          -2.8234    0.4868    0.7894 C.ar    1  UNL1       -0.1827
      7 C          -1.5207    0.7382    0.3604 C.ar    1  UNL1       -0.1051
      8 C          -1.0711    0.2940   -0.8823 C.ar    1  UNL1        0.0621
      9 N           0.2735    0.5449   -1.3240 N.am    1  UNL1       -0.2728
     10 C           0.4671    1.3674   -2.5286 C.3     1  UNL1        0.0834
     11 C           1.1707    2.6978   -2.3015 C.ar    1  UNL1        0.1270
     12 C           2.0726    3.1845   -3.2574 C.ar    1  UNL1       -0.1896
     13 C           2.6840    4.4301   -3.0893 C.ar    1  UNL1       -0.0604
     14 C           2.4113    5.2087   -1.9627 C.ar    1  UNL1       -0.0886
     15 C           1.5139    4.7156   -1.0125 C.ar    1  UNL1        0.0719
     16 C           0.8932    3.4763   -1.1685 C.ar    1  UNL1       -0.0896
     17 CL          1.1559    5.6794    0.4165 Cl      1  UNL1       -0.1238
     18 C           1.2949   -0.1529   -0.7018 C.2     1  UNL1        0.5215
     19 O           1.1015   -0.9085    0.2350 O.2     1  UNL1       -0.5249
     20 C           2.7237    0.1184   -1.2019 C.3     1  UNL1        0.0495
     21 N           3.6147   -0.9945   -0.9624 N.ar    1  UNL1        0.2411
     22 N           4.1479   -1.6401   -2.0462 N.ar    1  UNL1       -0.2075
     23 N           4.9758   -2.5430   -1.6469 N.ar    1  UNL1       -0.3561
     24 C           5.0204   -2.5131   -0.2669 C.ar    1  UNL1        0.4116
     25 C           5.7762   -3.2781    0.6400 C.ar    1  UNL1       -0.2659
     26 C           5.6212   -3.0040    1.9908 C.ar    1  UNL1       -0.0628
     27 C           4.7269   -1.9982    2.4407 C.ar    1  UNL1       -0.0899
     28 C           3.9655   -1.2402    1.5612 C.ar    1  UNL1       -0.1713
     29 C           4.1361   -1.5129    0.1930 C.ar    1  UNL1       -0.0296
     30 C          -5.1024   -0.4785    0.3928 C.ar    1  UNL1       -0.0330
     31 C          -5.9874   -1.5081   -0.0424 C.ar    1  UNL1        0.1355
     32 N          -7.1735   -1.4487    0.5585 N.ar    1  UNL1       -0.4440
     33 N          -7.0715   -0.3855    1.3788 N.ar    1  UNL1        0.0659
     34 C          -5.8616    0.2275    1.3226 C.ar    1  UNL1       -0.1706
     35 H          -1.6239   -1.9126   -4.6100 H       1  UNL1        0.0338
     36 H          -2.5736   -2.5873   -3.2445 H       1  UNL1        0.0194
     37 H          -3.1412   -1.1040   -4.0920 H       1  UNL1        0.0136
     38 H          -3.9554   -1.2123   -1.9329 H       1  UNL1        0.1136
     39 H          -3.1361    0.8221    1.7793 H       1  UNL1        0.1066
     40 H          -0.8240    1.2703    1.0098 H       1  UNL1        0.1390
     41 H           0.9932    0.7950   -3.3082 H       1  UNL1        0.0479
     42 H          -0.5366    1.5597   -2.9312 H       1  UNL1        0.0026
     43 H           2.3020    2.5828   -4.1407 H       1  UNL1        0.1138
     44 H           3.3882    4.7974   -3.8389 H       1  UNL1        0.0943
     45 H           2.8868    6.1787   -1.8166 H       1  UNL1        0.0977
     46 H           0.1964    3.1210   -0.4098 H       1  UNL1        0.0497
     47 H           2.7769    0.3054   -2.2798 H       1  UNL1       -0.0198
     48 H           3.0987    1.0206   -0.6892 H       1  UNL1       -0.0059
     49 H           6.4548   -4.0520    0.2781 H       1  UNL1        0.1293
     50 H           6.1894   -3.5745    2.7284 H       1  UNL1        0.0890
     51 H           4.6254   -1.8248    3.5145 H       1  UNL1        0.0861
     52 H           3.2471   -0.5007    1.9117 H       1  UNL1        0.1386
     53 H          -5.7926   -2.3062   -0.7561 H       1  UNL1        0.0841
     54 H          -5.6395    1.1108    1.9150 H       1  UNL1        0.1301
     55 H          -7.8653   -0.1250    1.9495 H       1  UNL1        0.2558
@<TRIPOS>BOND
     1     1    37    1
     2     1    35    1
     3     2     1    1
     4     3     2    1
     5     4     3   ar
     6     4    38    1
     7     5     4   ar
     8     6     7   ar
     9     6     5   ar
    10     7     8   ar
    11     8     9    1
    12     8     3   ar
    13     9    10    1
    14    10    42    1
    15    10    41    1
    16    11    10    1
    17    11    12   ar
    18    12    43    1
    19    13    12   ar
    20    13    44    1
    21    14    13   ar
    22    15    16   ar
    23    15    14   ar
    24    16    11   ar
    25    17    15    1
    26    18    20    1
    27    18     9   am
    28    19    18    2
    29    20    47    1
    30    21    20    1
    31    21    22   ar
    32    23    22   ar
    33    24    23   ar
    34    25    49    1
    35    25    24   ar
    36    26    25   ar
    37    27    26   ar
    38    27    28   ar
    39    28    29   ar
    40    29    24   ar
    41    29    21   ar
    42    30     5    1
    43    30    31   ar
    44    31    53    1
    45    32    31   ar
    46    33    32   ar
    47    34    33   ar
    48    34    30   ar
    49    36     1    1
    50    39     6    1
    51    40     7    1
    52    45    14    1
    53    46    16    1
    54    48    20    1
    55    50    26    1
    56    51    27    1
    57    52    28    1
    58    54    34    1
    59    55    33    1
