@<TRIPOS>MOLECULE
./Mol32.log
 53 57 0 0 0
SMALL
GASTEIGER

@<TRIPOS>ATOM
      1 CL          1.5905   -0.3319   -6.9237 Cl      1  UNL1       -0.0938
      2 C           1.9372    0.9784   -5.8078 C.ar    1  UNL1        0.0250
      3 C           1.2377    2.1783   -5.9363 C.ar    1  UNL1       -0.0463
      4 C           1.5256    3.2028   -5.0312 C.ar    1  UNL1        0.0054
      5 C           2.4810    3.0500   -4.0270 C.ar    1  UNL1        0.0219
      6 C           3.1744    1.8359   -3.9162 C.ar    1  UNL1       -0.1136
      7 C           2.8972    0.7923   -4.8097 C.ar    1  UNL1        0.0203
      8 C           4.2624    1.6460   -2.8678 C.3     1  UNL1        0.3316
      9 N           3.9141    2.1297   -1.5173 N.am    1  UNL1       -0.4321
     10 C           3.1009    1.4116   -0.6599 C.2     1  UNL1        0.5298
     11 O           2.7903    1.8058    0.4547 O.2     1  UNL1       -0.5219
     12 C           2.6020    0.0314   -1.1304 C.3     1  UNL1        0.0854
     13 N           3.6068   -1.0030   -0.9575 N.ar    1  UNL1        0.1084
     14 N           4.1364   -1.6456   -2.0443 N.ar    1  UNL1       -0.0769
     15 N           4.9821   -2.5364   -1.6495 N.ar    1  UNL1       -0.3998
     16 C           5.0314   -2.5092   -0.2697 C.ar    1  UNL1        0.4220
     17 C           5.7798   -3.2788    0.6399 C.ar    1  UNL1       -0.2788
     18 C           5.6086   -3.0115    1.9906 C.ar    1  UNL1       -0.0439
     19 C           4.7200   -1.9999    2.4402 C.ar    1  UNL1       -0.0942
     20 C           3.9733   -1.2273    1.5598 C.ar    1  UNL1       -0.1722
     21 C           4.1463   -1.5124    0.1940 C.ar    1  UNL1       -0.0201
     22 C           4.4655    3.3806   -1.0690 C.ar    1  UNL1        0.2614
     23 C           5.8477    3.6004   -1.1393 C.ar    1  UNL1       -0.1795
     24 C           6.3921    4.8181   -0.7326 C.ar    1  UNL1       -0.0939
     25 C           5.5774    5.8468   -0.2276 C.ar    1  UNL1        0.0614
     26 C           4.1935    5.6052   -0.1470 C.ar    1  UNL1       -0.1424
     27 C           3.6419    4.3936   -0.5592 C.ar    1  UNL1       -0.0883
     28 C           6.1589    7.1395    0.2102 C.ar    1  UNL1       -0.1437
     29 C           7.2211    7.7503   -0.4768 C.ar    1  UNL1        0.0920
     30 C           7.7265    8.9645   -0.0156 C.ar    1  UNL1       -0.2949
     31 C           7.1523    9.5408    1.1206 C.ar    1  UNL1        0.3446
     32 N           6.1426    8.9801    1.8004 N.ar    1  UNL1       -0.5338
     33 C           5.6730    7.8129    1.3483 C.ar    1  UNL1        0.3165
     34 CL          0.6584    4.7245   -5.1709 Cl      1  UNL1       -0.0948
     35 H           0.4884    2.3111   -6.7147 H       1  UNL1        0.1024
     36 H           2.6814    3.8733   -3.3419 H       1  UNL1        0.0161
     37 H           3.4152   -0.1640   -4.7220 H       1  UNL1        0.0223
     38 H           4.5557    0.5892   -2.8319 H       1  UNL1       -0.0114
     39 H           5.1534    2.2060   -3.1822 H       1  UNL1       -0.0145
     40 H           1.7305   -0.1981   -0.5021 H       1  UNL1        0.0392
     41 H           2.2986    0.0073   -2.1834 H       1  UNL1       -0.0267
     42 H           6.4628   -4.0506    0.2825 H       1  UNL1        0.1435
     43 H           6.1705   -3.5858    2.7300 H       1  UNL1        0.0876
     44 H           4.6266   -1.8200    3.5134 H       1  UNL1        0.0963
     45 H           3.3105   -0.4304    1.8983 H       1  UNL1        0.1430
     46 H           6.5095    2.8070   -1.4925 H       1  UNL1        0.1186
     47 H           7.4745    4.9547   -0.7742 H       1  UNL1        0.0863
     48 H           3.5287    6.3895    0.2196 H       1  UNL1        0.0957
     49 H           2.5673    4.2319   -0.4853 H       1  UNL1        0.1342
     50 H           7.6308    7.2884   -1.3780 H       1  UNL1        0.0592
     51 H           8.5464    9.4650   -0.5348 H       1  UNL1        0.1154
     52 H           7.5195   10.4985    1.5042 H       1  UNL1        0.0124
     53 H           4.8668    7.3646    1.9386 H       1  UNL1        0.0199
@<TRIPOS>BOND
     1     1     2    1
     2     2     3   ar
     3     3    35    1
     4     3     4   ar
     5     4    34    1
     6     5    36    1
     7     5     4   ar
     8     6     5   ar
     9     7     2   ar
    10     7     6   ar
    11     8     6    1
    12     8     9    1
    13     9    10   am
    14    10    12    1
    15    10    11    2
    16    12    40    1
    17    13    21   ar
    18    13    12    1
    19    14    13   ar
    20    15    14   ar
    21    15    16   ar
    22    16    21   ar
    23    17    16   ar
    24    17    18   ar
    25    18    19   ar
    26    19    20   ar
    27    19    44    1
    28    20    45    1
    29    21    20   ar
    30    22     9    1
    31    22    27   ar
    32    23    22   ar
    33    24    23   ar
    34    24    25   ar
    35    25    26   ar
    36    26    27   ar
    37    26    48    1
    38    27    49    1
    39    28    25    1
    40    28    33   ar
    41    29    28   ar
    42    30    29   ar
    43    30    31   ar
    44    31    32   ar
    45    32    33   ar
    46    33    53    1
    47    37     7    1
    48    38     8    1
    49    39     8    1
    50    41    12    1
    51    42    17    1
    52    43    18    1
    53    46    23    1
    54    47    24    1
    55    50    29    1
    56    51    30    1
    57    52    31    1
