@<TRIPOS>MOLECULE
./Mol34.log
 52 56 0 0 0
SMALL
GASTEIGER

@<TRIPOS>ATOM
      1 CL         -3.8314    0.7139   -0.1980 Cl      1  UNL1       -0.0886
      2 C          -2.2046    1.2327    0.1942 C.ar    1  UNL1       -0.1222
      3 C          -1.8071    1.3340    1.5337 C.ar    1  UNL1        0.3391
      4 N          -0.5793    1.7205    1.8835 N.ar    1  UNL1       -0.5481
      5 C           0.2918    2.0217    0.9090 C.ar    1  UNL1        0.3687
      6 C          -0.0083    1.9523   -0.4578 C.ar    1  UNL1       -0.1066
      7 C          -1.2995    1.5411   -0.8164 C.ar    1  UNL1        0.0500
      8 C           0.9879    2.3144   -1.5517 C.3     1  UNL1        0.0430
      9 N           2.3767    2.5144   -1.1271 N.am    1  UNL1       -0.4265
     10 C           3.2221    1.4361   -0.8795 C.2     1  UNL1        0.6531
     11 O           4.3563    1.5570   -0.4593 O.2     1  UNL1       -0.5084
     12 C           2.6372    0.0378   -1.1704 C.3     1  UNL1       -0.1079
     13 N           3.6070   -1.0039   -0.9599 N.ar    1  UNL1        0.3304
     14 N           4.1373   -1.6486   -2.0462 N.ar    1  UNL1       -0.2279
     15 N           4.9780   -2.5387   -1.6486 N.ar    1  UNL1       -0.3369
     16 C           5.0312   -2.5047   -0.2679 C.ar    1  UNL1        0.4023
     17 C           5.7793   -3.2749    0.6399 C.ar    1  UNL1       -0.2503
     18 C           5.6095   -3.0127    1.9920 C.ar    1  UNL1       -0.0542
     19 C           4.7189   -2.0047    2.4419 C.ar    1  UNL1       -0.1023
     20 C           3.9751   -1.2314    1.5595 C.ar    1  UNL1       -0.1473
     21 C           4.1484   -1.5045    0.1927 C.ar    1  UNL1       -0.0771
     22 C           2.8469    3.8635   -0.9718 C.ar    1  UNL1        0.2665
     23 C           1.9924    4.8485   -0.4532 C.ar    1  UNL1       -0.1267
     24 C           2.4168    6.1730   -0.3448 C.ar    1  UNL1       -0.1047
     25 C           3.7079    6.5600   -0.7387 C.ar    1  UNL1        0.0248
     26 C           4.5557    5.5609   -1.2519 C.ar    1  UNL1       -0.0797
     27 C           4.1402    4.2369   -1.3721 C.ar    1  UNL1       -0.1858
     28 C           4.1589    7.9683   -0.6202 C.ar    1  UNL1       -0.1271
     29 C           3.8049    8.7761    0.4732 C.ar    1  UNL1        0.0943
     30 C           4.2578   10.0932    0.5261 C.ar    1  UNL1       -0.2956
     31 C           5.0580   10.5691   -0.5161 C.ar    1  UNL1        0.3308
     32 N           5.4080    9.8251   -1.5743 N.ar    1  UNL1       -0.5237
     33 C           4.9620    8.5653   -1.6118 C.ar    1  UNL1        0.3113
     34 H          -2.5081    1.0915    2.3372 H       1  UNL1        0.0338
     35 H           1.2865    2.3347    1.2387 H       1  UNL1        0.0053
     36 H          -1.5980    1.4594   -1.8639 H       1  UNL1        0.0797
     37 H           0.9492    1.5453   -2.3388 H       1  UNL1        0.1053
     38 H           0.6652    3.2454   -2.0398 H       1  UNL1        0.0444
     39 H           1.7451   -0.1451   -0.5505 H       1  UNL1       -0.0005
     40 H           2.3381   -0.0427   -2.2253 H       1  UNL1        0.0319
     41 H           6.4621   -4.0455    0.2794 H       1  UNL1        0.1281
     42 H           6.1720   -3.5880    2.7300 H       1  UNL1        0.0891
     43 H           4.6205   -1.8276    3.5152 H       1  UNL1        0.0956
     44 H           3.3067   -0.4465    1.9151 H       1  UNL1        0.1183
     45 H           0.9841    4.5913   -0.1256 H       1  UNL1        0.0746
     46 H           1.7192    6.9196    0.0401 H       1  UNL1        0.0888
     47 H           5.5743    5.8177   -1.5491 H       1  UNL1        0.0971
     48 H           4.8281    3.4899   -1.7601 H       1  UNL1        0.1429
     49 H           3.2000    8.3671    1.2857 H       1  UNL1        0.0610
     50 H           4.0049   10.7406    1.3683 H       1  UNL1        0.1156
     51 H           5.4370   11.5964   -0.5016 H       1  UNL1        0.0161
     52 H           5.2431    7.9884   -2.4993 H       1  UNL1        0.0060
@<TRIPOS>BOND
     1     1     2    1
     2     2     3   ar
     3     3     4   ar
     4     3    34    1
     5     5    35    1
     6     5     4   ar
     7     6     5   ar
     8     7     6   ar
     9     7     2   ar
    10     8     9    1
    11     8     6    1
    12     9    10   am
    13     9    22    1
    14    10    11    2
    15    12    13    1
    16    12    10    1
    17    12    39    1
    18    13    21   ar
    19    14    15   ar
    20    14    13   ar
    21    15    16   ar
    22    16    21   ar
    23    16    17   ar
    24    17    18   ar
    25    18    19   ar
    26    18    42    1
    27    19    43    1
    28    20    44    1
    29    20    19   ar
    30    21    20   ar
    31    22    23   ar
    32    23    24   ar
    33    23    45    1
    34    24    46    1
    35    25    28    1
    36    25    24   ar
    37    26    25   ar
    38    27    26   ar
    39    27    22   ar
    40    28    29   ar
    41    29    30   ar
    42    29    49    1
    43    30    50    1
    44    31    51    1
    45    31    30   ar
    46    32    31   ar
    47    33    32   ar
    48    33    28   ar
    49    36     7    1
    50    37     8    1
    51    38     8    1
    52    40    12    1
    53    41    17    1
    54    47    26    1
    55    48    27    1
    56    52    33    1
