@<TRIPOS>MOLECULE
./Mol39.log
 50 54 0 0 0
SMALL
GASTEIGER

@<TRIPOS>ATOM
      1 CL         -3.8916    0.6170   -0.5181 Cl      1  UNL1       -0.1136
      2 C          -2.3028    1.1378    0.0241 C.ar    1  UNL1        0.0682
      3 C          -2.0296    1.1963    1.3937 C.ar    1  UNL1       -0.0554
      4 C          -0.7612    1.6086    1.8031 C.ar    1  UNL1       -0.1468
      5 C           0.2171    1.9580    0.8652 C.ar    1  UNL1       -0.0545
      6 C          -0.0654    1.8975   -0.5052 C.ar    1  UNL1        0.1454
      7 C          -1.3382    1.4795   -0.9228 C.ar    1  UNL1       -0.1477
      8 C           0.9507    2.2867   -1.5747 C.3     1  UNL1       -0.0761
      9 N           2.3280    2.4966   -1.1181 N.am    1  UNL1       -0.3750
     10 C           3.1792    1.4295   -0.8469 C.2     1  UNL1        0.6042
     11 O           4.2943    1.5669   -0.3819 O.2     1  UNL1       -0.4987
     12 C           2.6250    0.0278   -1.1715 C.3     1  UNL1        0.0111
     13 N           3.6074   -1.0033   -0.9601 N.ar    1  UNL1        0.2869
     14 N           4.1367   -1.6492   -2.0459 N.ar    1  UNL1       -0.2216
     15 N           4.9782   -2.5388   -1.6484 N.ar    1  UNL1       -0.3416
     16 C           5.0314   -2.5044   -0.2679 C.ar    1  UNL1        0.4253
     17 C           5.7795   -3.2745    0.6400 C.ar    1  UNL1       -0.2923
     18 C           5.6093   -3.0130    1.9921 C.ar    1  UNL1       -0.0254
     19 C           4.7188   -2.0049    2.4420 C.ar    1  UNL1       -0.1095
     20 C           3.9755   -1.2316    1.5593 C.ar    1  UNL1       -0.1484
     21 C           4.1481   -1.5044    0.1924 C.ar    1  UNL1       -0.0702
     22 C           2.7776    3.8443   -0.9271 C.ar    1  UNL1        0.0455
     23 C           1.9259    4.8217   -0.3959 C.ar    1  UNL1        0.0884
     24 C           2.3815    6.1308   -0.2724 C.ar    1  UNL1       -0.3596
     25 C           3.6886    6.4496   -0.6773 C.ar    1  UNL1        0.4609
     26 N           4.5085    5.5071   -1.1892 N.ar    1  UNL1       -0.5454
     27 C           4.0681    4.2563   -1.3089 C.ar    1  UNL1        0.2544
     28 C           4.2405    7.8038   -0.5813 C.ar    1  UNL1       -0.1842
     29 C           3.6427    8.9747   -0.1218 C.ar    1  UNL1       -0.1323
     30 N           4.5773    9.9506   -0.2422 N.ar    1  UNL1        0.0668
     31 N           5.7509    9.5140   -0.7475 N.ar    1  UNL1       -0.4606
     32 C           5.5524    8.2160   -0.9542 C.ar    1  UNL1        0.2437
     33 H          -2.7966    0.9209    2.1175 H       1  UNL1        0.0970
     34 H          -0.5313    1.6583    2.8696 H       1  UNL1        0.1155
     35 H           1.2034    2.2781    1.2050 H       1  UNL1        0.0787
     36 H          -1.5827    1.4172   -1.9852 H       1  UNL1        0.0981
     37 H           0.9383    1.5301   -2.3744 H       1  UNL1        0.1290
     38 H           0.6290    3.2219   -2.0561 H       1  UNL1        0.0718
     39 H           1.7240   -0.1766   -0.5712 H       1  UNL1       -0.0322
     40 H           2.3459   -0.0416   -2.2325 H       1  UNL1        0.0037
     41 H           6.4630   -4.0446    0.2793 H       1  UNL1        0.1402
     42 H           6.1722   -3.5881    2.7300 H       1  UNL1        0.0816
     43 H           4.6215   -1.8274    3.5153 H       1  UNL1        0.0947
     44 H           3.3094   -0.4442    1.9132 H       1  UNL1        0.1108
     45 H           0.9151    4.5684   -0.0716 H       1  UNL1        0.0255
     46 H           1.7220    6.8955    0.1418 H       1  UNL1        0.1572
     47 H           4.7733    3.5345   -1.7226 H       1  UNL1        0.0678
     48 H           2.6508    9.1835    0.2699 H       1  UNL1        0.1111
     49 H           6.3414    7.5913   -1.3636 H       1  UNL1        0.0551
     50 H           4.4780   10.9278    0.0006 H       1  UNL1        0.2526
@<TRIPOS>BOND
     1     1     2    1
     2     2     3   ar
     3     3     4   ar
     4     3    33    1
     5     4    34    1
     6     5    35    1
     7     5     4   ar
     8     6     5   ar
     9     7     6   ar
    10     7     2   ar
    11     8     9    1
    12     8     6    1
    13     9    10   am
    14     9    22    1
    15    10    11    2
    16    12    13    1
    17    12    10    1
    18    12    39    1
    19    13    21   ar
    20    14    15   ar
    21    14    13   ar
    22    15    16   ar
    23    16    21   ar
    24    16    17   ar
    25    17    18   ar
    26    18    19   ar
    27    18    42    1
    28    19    43    1
    29    20    44    1
    30    20    19   ar
    31    21    20   ar
    32    22    23   ar
    33    23    24   ar
    34    23    45    1
    35    24    46    1
    36    25    28    1
    37    25    24   ar
    38    26    25   ar
    39    27    26   ar
    40    27    22   ar
    41    28    29   ar
    42    29    48    1
    43    30    29   ar
    44    30    50    1
    45    31    30   ar
    46    32    31   ar
    47    32    28   ar
    48    36     7    1
    49    37     8    1
    50    38     8    1
    51    40    12    1
    52    41    17    1
    53    47    27    1
    54    49    32    1
