@<TRIPOS>MOLECULE
./Mol36.log
 51 55 0 0 0
SMALL
GASTEIGER

@<TRIPOS>ATOM
      1 CL         -3.8573    0.5746   -0.4786 Cl      1  UNL1       -0.1172
      2 C          -2.2735    1.1226    0.0534 C.ar    1  UNL1        0.0636
      3 C          -1.9996    1.2061    1.4214 C.ar    1  UNL1       -0.0547
      4 C          -0.7354    1.6395    1.8225 C.ar    1  UNL1       -0.1578
      5 C           0.2374    1.9855    0.8781 C.ar    1  UNL1       -0.0448
      6 C          -0.0459    1.9002   -0.4909 C.ar    1  UNL1        0.1584
      7 C          -1.3141    1.4603   -0.9001 C.ar    1  UNL1       -0.1432
      8 C           0.9649    2.2875   -1.5658 C.3     1  UNL1       -0.1222
      9 N           2.3433    2.5016   -1.1147 N.am    1  UNL1       -0.3452
     10 C           3.1906    1.4315   -0.8506 C.2     1  UNL1        0.5915
     11 O           4.3121    1.5569   -0.3954 O.2     1  UNL1       -0.5053
     12 C           2.6273    0.0306   -1.1698 C.3     1  UNL1        0.0273
     13 N           3.6072   -1.0036   -0.9599 N.ar    1  UNL1        0.2913
     14 N           4.1365   -1.6486   -2.0455 N.ar    1  UNL1       -0.2276
     15 N           4.9784   -2.5387   -1.6484 N.ar    1  UNL1       -0.3370
     16 C           5.0314   -2.5047   -0.2680 C.ar    1  UNL1        0.4104
     17 C           5.7795   -3.2748    0.6400 C.ar    1  UNL1       -0.2601
     18 C           5.6093   -3.0129    1.9922 C.ar    1  UNL1       -0.0481
     19 C           4.7187   -2.0046    2.4418 C.ar    1  UNL1       -0.1117
     20 C           3.9755   -1.2314    1.5590 C.ar    1  UNL1       -0.1331
     21 C           4.1482   -1.5046    0.1923 C.ar    1  UNL1       -0.0763
     22 C           2.7939    3.8548   -0.9353 C.ar    1  UNL1        0.2105
     23 C           1.9122    4.8301   -0.4431 C.ar    1  UNL1       -0.0853
     24 C           2.3210    6.1566   -0.3076 C.ar    1  UNL1       -0.1492
     25 C           3.6205    6.5624   -0.6558 C.ar    1  UNL1        0.0740
     26 C           4.4934    5.5727   -1.1461 C.ar    1  UNL1       -0.1380
     27 C           4.0968    4.2452   -1.2852 C.ar    1  UNL1       -0.1368
     28 C           4.0571    7.9583   -0.5159 C.ar    1  UNL1       -0.0509
     29 C           3.2719    9.1083   -0.4897 C.ar    1  UNL1       -0.1595
     30 N           4.1246   10.1551   -0.3446 N.ar    1  UNL1        0.0661
     31 N           5.4178    9.7875   -0.2694 N.ar    1  UNL1       -0.4393
     32 C           5.3839    8.4610   -0.3749 C.ar    1  UNL1        0.1338
     33 H          -2.7628    0.9336    2.1505 H       1  UNL1        0.0975
     34 H          -0.5051    1.7093    2.8877 H       1  UNL1        0.1193
     35 H           1.2198    2.3248    1.2101 H       1  UNL1        0.0701
     36 H          -1.5588    1.3783   -1.9612 H       1  UNL1        0.0975
     37 H           0.9510    1.5272   -2.3618 H       1  UNL1        0.1354
     38 H           0.6398    3.2199   -2.0491 H       1  UNL1        0.0792
     39 H           1.7290   -0.1700   -0.5646 H       1  UNL1       -0.0401
     40 H           2.3430   -0.0410   -2.2291 H       1  UNL1       -0.0007
     41 H           6.4627   -4.0452    0.2796 H       1  UNL1        0.1285
     42 H           6.1720   -3.5881    2.7304 H       1  UNL1        0.0871
     43 H           4.6213   -1.8271    3.5151 H       1  UNL1        0.0952
     44 H           3.3094   -0.4439    1.9125 H       1  UNL1        0.1078
     45 H           0.9001    4.5586   -0.1401 H       1  UNL1        0.0468
     46 H           1.6171    6.8828    0.1046 H       1  UNL1        0.1080
     47 H           5.5050    5.8489   -1.4497 H       1  UNL1        0.0955
     48 H           4.8021    3.5105   -1.6658 H       1  UNL1        0.1306
     49 H           2.1993    9.2541   -0.5850 H       1  UNL1        0.1244
     50 H           6.3140    7.8983   -0.3259 H       1  UNL1        0.0838
     51 H           3.8878   11.1377   -0.2984 H       1  UNL1        0.2506
@<TRIPOS>BOND
     1     1     2    1
     2     2     3   ar
     3     3     4   ar
     4     3    33    1
     5     4    34    1
     6     5    35    1
     7     5     4   ar
     8     6     5   ar
     9     7     6   ar
    10     7     2   ar
    11     8     9    1
    12     8     6    1
    13     9    10   am
    14     9    22    1
    15    10    11    2
    16    12    13    1
    17    12    10    1
    18    12    39    1
    19    13    21   ar
    20    14    15   ar
    21    14    13   ar
    22    15    16   ar
    23    16    21   ar
    24    16    17   ar
    25    17    18   ar
    26    18    19   ar
    27    18    42    1
    28    19    43    1
    29    20    44    1
    30    20    19   ar
    31    21    20   ar
    32    22    23   ar
    33    23    24   ar
    34    23    45    1
    35    24    46    1
    36    25    28    1
    37    25    24   ar
    38    26    25   ar
    39    27    26   ar
    40    27    22   ar
    41    28    29   ar
    42    28    32   ar
    43    29    30   ar
    44    30    31   ar
    45    30    51    1
    46    32    50    1
    47    32    31   ar
    48    36     7    1
    49    37     8    1
    50    38     8    1
    51    40    12    1
    52    41    17    1
    53    47    26    1
    54    48    27    1
    55    49    29    1
