@<TRIPOS>MOLECULE
./Mol37.log
 51 55 0 0 0
SMALL
GASTEIGER

@<TRIPOS>ATOM
      1 C           4.1459   -1.5083    0.1939 C.ar    1  UNL1       -0.0740
      2 C           5.0316   -2.5056   -0.2683 C.ar    1  UNL1        0.4176
      3 C           3.9761   -1.2272    1.5609 C.ar    1  UNL1       -0.1132
      4 C           5.7802   -3.2763    0.6398 C.ar    1  UNL1       -0.2622
      5 C           4.7196   -2.0033    2.4410 C.ar    1  UNL1       -0.1141
      6 C           5.6081   -3.0145    1.9914 C.ar    1  UNL1       -0.0569
      7 N           3.6058   -1.0035   -0.9611 N.ar    1  UNL1        0.2253
      8 N           4.9818   -2.5369   -1.6482 N.ar    1  UNL1       -0.3593
      9 N           4.1356   -1.6485   -2.0460 N.ar    1  UNL1       -0.1929
     10 C           2.5866    0.0134   -1.1606 C.3     1  UNL1        0.0335
     11 C           3.1062    1.4050   -0.7662 C.2     1  UNL1        0.4062
     12 N           3.4507    2.2761   -1.7670 N.am    1  UNL1       -0.2292
     13 O           3.2211    1.6880    0.4242 O.2     1  UNL1       -0.4621
     14 C           4.0603    3.5686   -1.3778 C.3     1  UNL1        0.0135
     15 C           2.1089    6.7594   -2.1251 C.ar    1  UNL1        0.0833
     16 C           1.2407    6.8456   -1.0368 C.ar    1  UNL1       -0.0815
     17 C           3.0207    5.7079   -2.2459 C.ar    1  UNL1       -0.1184
     18 C           1.2985    5.8524   -0.0533 C.ar    1  UNL1       -0.0778
     19 C           3.0723    4.7144   -1.2591 C.ar    1  UNL1        0.1266
     20 C           2.2046    4.7957   -0.1568 C.ar    1  UNL1       -0.1727
     21 CL          2.0581    7.9999   -3.3749 Cl      1  UNL1       -0.1310
     22 C           1.9931    2.3134   -5.2106 C.ar    1  UNL1       -0.1425
     23 C           2.9460    1.5849   -5.9490 C.ar    1  UNL1        0.1146
     24 C           2.1456    2.5237   -3.8407 C.ar    1  UNL1       -0.1223
     25 C           4.0637    1.0790   -5.2575 C.ar    1  UNL1       -0.1586
     26 C           3.2678    2.0176   -3.1706 C.ar    1  UNL1        0.3056
     27 C           4.2291    1.2981   -3.8910 C.ar    1  UNL1       -0.2071
     28 C           2.7851    1.3562   -7.3912 C.ar    1  UNL1       -0.0785
     29 C           1.6196    1.4341   -8.1507 C.ar    1  UNL1       -0.1494
     30 C           3.7811    1.0048   -8.3493 C.ar    1  UNL1        0.1472
     31 N           1.9719    1.1435   -9.4281 N.ar    1  UNL1        0.0582
     32 N           3.2846    0.8810   -9.5774 N.ar    1  UNL1       -0.4334
     33 H           3.3270   -0.4197    1.8967 H       1  UNL1        0.1062
     34 H           6.4643   -4.0461    0.2795 H       1  UNL1        0.1296
     35 H           4.6266   -1.8230    3.5143 H       1  UNL1        0.0971
     36 H           6.1701   -3.5902    2.7298 H       1  UNL1        0.0892
     37 H           2.2774   -0.0614   -2.2080 H       1  UNL1       -0.0197
     38 H           1.7287   -0.2010   -0.5061 H       1  UNL1        0.0465
     39 H           4.5517    3.3990   -0.4108 H       1  UNL1        0.0509
     40 H           4.8253    3.8046   -2.1304 H       1  UNL1        0.0314
     41 H           0.5384    7.6763   -0.9608 H       1  UNL1        0.0923
     42 H           3.6878    5.6692   -3.1084 H       1  UNL1        0.0685
     43 H           0.6292    5.9132    0.8078 H       1  UNL1        0.0975
     44 H           2.2512    4.0243    0.6137 H       1  UNL1        0.1229
     45 H           1.1240    2.7383   -5.7170 H       1  UNL1        0.1074
     46 H           1.3971    3.0897   -3.2841 H       1  UNL1        0.0628
     47 H           4.8076    0.4845   -5.7902 H       1  UNL1        0.1130
     48 H           5.0926    0.8815   -3.3708 H       1  UNL1        0.1431
     49 H           0.5901    1.6480   -7.8777 H       1  UNL1        0.1295
     50 H           4.8471    0.8562   -8.1891 H       1  UNL1        0.0803
     51 H           1.3655    1.1007  -10.2371 H       1  UNL1        0.2568
@<TRIPOS>BOND
     1     1     3   ar
     2     1     7   ar
     3     2     1   ar
     4     3    33    1
     5     4     6   ar
     6     4     2   ar
     7     5    35    1
     8     5     3   ar
     9     6     5   ar
    10     7    10    1
    11     8     2   ar
    12     8     9   ar
    13     9     7   ar
    14    10    37    1
    15    10    38    1
    16    11    10    1
    17    12    26    1
    18    12    11   am
    19    13    11    2
    20    14    19    1
    21    14    12    1
    22    15    16   ar
    23    16    18   ar
    24    16    41    1
    25    17    19   ar
    26    17    15   ar
    27    18    43    1
    28    19    20   ar
    29    20    44    1
    30    20    18   ar
    31    21    15    1
    32    22    45    1
    33    23    28    1
    34    23    22   ar
    35    24    22   ar
    36    24    46    1
    37    25    23   ar
    38    26    24   ar
    39    27    25   ar
    40    27    26   ar
    41    28    29   ar
    42    29    49    1
    43    30    32   ar
    44    30    28   ar
    45    31    29   ar
    46    31    51    1
    47    32    31   ar
    48    34     4    1
    49    36     6    1
    50    39    14    1
    51    40    14    1
    52    42    17    1
    53    47    25    1
    54    48    27    1
    55    50    30    1
