@<TRIPOS>MOLECULE
./Mol33.log
 56 60 0 0 0
SMALL
GASTEIGER

@<TRIPOS>ATOM
      1 C           1.6986   -0.1131   -6.8216 C.3     1  UNL1       -0.1230
      2 C           1.9283    0.9910   -5.8177 C.ar    1  UNL1        0.1187
      3 C           1.1894    2.1788   -5.8734 C.ar    1  UNL1       -0.1693
      4 C           1.4301    3.1890   -4.9384 C.ar    1  UNL1        0.0532
      5 C           2.3942    3.0517   -3.9430 C.ar    1  UNL1       -0.0169
      6 C           3.1398    1.8645   -3.8794 C.ar    1  UNL1       -0.0600
      7 C           2.8971    0.8474   -4.8099 C.ar    1  UNL1       -0.1069
      8 C           4.2405    1.6853   -2.8435 C.3     1  UNL1        0.2623
      9 N           3.8953    2.1435   -1.4815 N.am    1  UNL1       -0.4242
     10 C           3.0890    1.4059   -0.6364 C.2     1  UNL1        0.5394
     11 O           2.7761    1.7768    0.4863 O.2     1  UNL1       -0.5286
     12 C           2.6003    0.0307   -1.1309 C.3     1  UNL1        0.0839
     13 N           3.6076   -1.0024   -0.9578 N.ar    1  UNL1        0.1494
     14 N           4.1364   -1.6452   -2.0442 N.ar    1  UNL1       -0.1050
     15 N           4.9816   -2.5369   -1.6495 N.ar    1  UNL1       -0.3950
     16 C           5.0311   -2.5096   -0.2697 C.ar    1  UNL1        0.4284
     17 C           5.7800   -3.2786    0.6400 C.ar    1  UNL1       -0.2763
     18 C           5.6091   -3.0111    1.9906 C.ar    1  UNL1       -0.0420
     19 C           4.7199   -1.9999    2.4403 C.ar    1  UNL1       -0.1115
     20 C           3.9728   -1.2277    1.5598 C.ar    1  UNL1       -0.1461
     21 C           4.1462   -1.5127    0.1939 C.ar    1  UNL1       -0.0568
     22 C           4.4372    3.3910   -1.0146 C.ar    1  UNL1        0.2872
     23 C           5.8158    3.6285   -1.0963 C.ar    1  UNL1       -0.2093
     24 C           6.3511    4.8450   -0.6740 C.ar    1  UNL1       -0.0686
     25 C           5.5307    5.8550   -0.1417 C.ar    1  UNL1        0.0431
     26 C           4.1506    5.5956   -0.0493 C.ar    1  UNL1       -0.1274
     27 C           3.6082    4.3852   -0.4769 C.ar    1  UNL1       -0.1132
     28 C           6.1015    7.1472    0.3112 C.ar    1  UNL1       -0.1395
     29 C           7.1458    7.7842   -0.3794 C.ar    1  UNL1        0.0895
     30 C           7.6411    8.9972    0.0956 C.ar    1  UNL1       -0.3089
     31 C           7.0750    9.5461    1.2493 C.ar    1  UNL1        0.3562
     32 N           6.0828    8.9600    1.9333 N.ar    1  UNL1       -0.5406
     33 C           5.6228    7.7942    1.4675 C.ar    1  UNL1        0.3214
     34 CL          0.4878    4.6746   -5.0226 Cl      1  UNL1       -0.1204
     35 H           1.6222   -1.0939   -6.3260 H       1  UNL1        0.0556
     36 H           0.7789    0.0509   -7.4018 H       1  UNL1        0.0435
     37 H           2.5380   -0.1768   -7.5352 H       1  UNL1        0.0481
     38 H           0.4231    2.3215   -6.6368 H       1  UNL1        0.1182
     39 H           2.5589    3.8595   -3.2303 H       1  UNL1        0.0226
     40 H           3.4662   -0.0839   -4.7410 H       1  UNL1        0.0469
     41 H           4.5570    0.6342   -2.8226 H       1  UNL1        0.0078
     42 H           5.1178    2.2681   -3.1548 H       1  UNL1       -0.0008
     43 H           1.7222   -0.2102   -0.5162 H       1  UNL1        0.0361
     44 H           2.3122    0.0192   -2.1883 H       1  UNL1       -0.0354
     45 H           6.4636   -4.0502    0.2828 H       1  UNL1        0.1397
     46 H           6.1716   -3.5848    2.7300 H       1  UNL1        0.0879
     47 H           4.6265   -1.8198    3.5134 H       1  UNL1        0.1007
     48 H           3.3098   -0.4306    1.8973 H       1  UNL1        0.1362
     49 H           6.4823    2.8494   -1.4716 H       1  UNL1        0.1243
     50 H           7.4314    4.9950   -0.7255 H       1  UNL1        0.0811
     51 H           3.4811    6.3656    0.3387 H       1  UNL1        0.0937
     52 H           2.5365    4.2103   -0.3942 H       1  UNL1        0.1423
     53 H           7.5488    7.3430   -1.2939 H       1  UNL1        0.0610
     54 H           8.4467    9.5180   -0.4262 H       1  UNL1        0.1195
     55 H           7.4344   10.5023    1.6442 H       1  UNL1        0.0095
     56 H           4.8309    7.3247    2.0607 H       1  UNL1        0.0181
@<TRIPOS>BOND
     1     1    35    1
     2     1     2    1
     3     1    36    1
     4     2     3   ar
     5     3    38    1
     6     3     4   ar
     7     4    34    1
     8     5     4   ar
     9     5    39    1
    10     6     5   ar
    11     7     2   ar
    12     7     6   ar
    13     8     6    1
    14     8     9    1
    15     9    10   am
    16    10    12    1
    17    10    11    2
    18    12    43    1
    19    13    21   ar
    20    13    12    1
    21    14    13   ar
    22    15    14   ar
    23    15    16   ar
    24    16    21   ar
    25    17    16   ar
    26    17    18   ar
    27    18    19   ar
    28    19    20   ar
    29    19    47    1
    30    20    48    1
    31    21    20   ar
    32    22     9    1
    33    22    27   ar
    34    23    22   ar
    35    24    23   ar
    36    24    25   ar
    37    25    26   ar
    38    26    27   ar
    39    26    51    1
    40    27    52    1
    41    28    25    1
    42    28    33   ar
    43    29    28   ar
    44    30    29   ar
    45    30    31   ar
    46    31    55    1
    47    31    32   ar
    48    32    33   ar
    49    33    56    1
    50    37     1    1
    51    40     7    1
    52    41     8    1
    53    42     8    1
    54    44    12    1
    55    45    17    1
    56    46    18    1
    57    49    23    1
    58    50    24    1
    59    53    29    1
    60    54    30    1
