@<TRIPOS>MOLECULE
./Mol41.log
 51 55 0 0 0
SMALL
GASTEIGER

@<TRIPOS>ATOM
      1 C           4.1485   -1.5033    0.1917 C.ar    1  UNL1       -0.1052
      2 C           5.0325   -2.5032   -0.2678 C.ar    1  UNL1        0.4354
      3 C           3.9768   -1.2306    1.5592 C.ar    1  UNL1       -0.1282
      4 C           5.7805   -3.2740    0.6401 C.ar    1  UNL1       -0.2834
      5 C           4.7176   -2.0060    2.4416 C.ar    1  UNL1       -0.1042
      6 C           5.6083   -3.0148    1.9924 C.ar    1  UNL1       -0.0481
      7 N           3.6070   -1.0027   -0.9607 N.ar    1  UNL1        0.3231
      8 N           4.9794   -2.5387   -1.6478 N.ar    1  UNL1       -0.3616
      9 N           4.1341   -1.6509   -2.0451 N.ar    1  UNL1       -0.2034
     10 C           2.5971    0.0053   -1.1732 C.3     1  UNL1       -0.0647
     11 C           3.0924    1.4174   -0.8153 C.2     1  UNL1        0.5324
     12 N           2.3133    2.4577   -1.2615 N.am    1  UNL1       -0.2635
     13 O           4.1111    1.5858   -0.1584 O.2     1  UNL1       -0.4989
     14 C           2.7541    3.8375   -0.9610 C.3     1  UNL1        0.0304
     15 C           0.5451    5.8206    1.4344 C.ar    1  UNL1        0.0891
     16 C           1.0416    5.4472    2.6832 C.ar    1  UNL1       -0.0933
     17 C           1.0905    5.3123    0.2531 C.ar    1  UNL1       -0.1098
     18 C           2.1095    4.5452    2.7372 C.ar    1  UNL1       -0.0700
     19 C           2.1582    4.4067    0.3133 C.ar    1  UNL1        0.0965
     20 C           2.6669    4.0271    1.5670 C.ar    1  UNL1       -0.1655
     21 CL         -0.7968    6.9591    1.3411 Cl      1  UNL1       -0.1358
     22 C          -1.3304    1.9498   -1.9445 C.ar    1  UNL1       -0.1917
     23 C          -1.3700    1.9747   -3.3504 C.ar    1  UNL1       -0.0228
     24 C          -0.1264    2.1019   -1.2576 C.ar    1  UNL1       -0.0557
     25 C          -0.1617    2.1586   -4.0487 C.ar    1  UNL1       -0.0095
     26 C           1.0721    2.2763   -1.9630 C.ar    1  UNL1        0.2158
     27 C           1.0429    2.3096   -3.3645 C.ar    1  UNL1       -0.1460
     28 C          -2.6253    1.8161   -4.0974 C.ar    1  UNL1        0.3048
     29 C          -3.9097    1.6175   -3.6181 C.ar    1  UNL1       -0.2395
     30 N          -2.6446    1.8522   -5.4815 N.ar    1  UNL1       -0.4728
     31 N          -4.7089    1.5337   -4.7352 N.ar    1  UNL1       -0.2255
     32 C          -3.9002    1.6809   -5.8285 C.ar    1  UNL1        0.2036
     33 H           3.3172   -0.4372    1.9105 H       1  UNL1        0.1082
     34 H           6.4647   -4.0432    0.2788 H       1  UNL1        0.1361
     35 H           4.6200   -1.8285    3.5151 H       1  UNL1        0.0902
     36 H           6.1703   -3.5908    2.7305 H       1  UNL1        0.0859
     37 H           2.3081   -0.0618   -2.2293 H       1  UNL1       -0.0136
     38 H           1.7015   -0.2239   -0.5719 H       1  UNL1        0.0290
     39 H           3.8485    3.8055   -0.8819 H       1  UNL1        0.0532
     40 H           2.4774    4.4622   -1.8217 H       1  UNL1        0.0348
     41 H           0.6032    5.8594    3.5924 H       1  UNL1        0.0950
     42 H           0.6825    5.6270   -0.7087 H       1  UNL1        0.0667
     43 H           2.5126    4.2514    3.7091 H       1  UNL1        0.0950
     44 H           3.5001    3.3235    1.6098 H       1  UNL1        0.1228
     45 H          -2.2506    1.8153   -1.3721 H       1  UNL1        0.1092
     46 H          -0.1090    2.0916   -0.1663 H       1  UNL1        0.0580
     47 H          -0.1900    2.1775   -5.1383 H       1  UNL1        0.0581
     48 H           1.9760    2.4478   -3.9153 H       1  UNL1        0.1029
     49 H          -4.3181    1.5302   -2.6166 H       1  UNL1        0.1625
     50 H          -5.7108    1.3891   -4.7417 H       1  UNL1        0.2969
     51 H          -4.2840    1.6540   -6.8461 H       1  UNL1        0.0771
@<TRIPOS>BOND
     1     1     2   ar
     2     1     7   ar
     3     2     8   ar
     4     3     1   ar
     5     4    34    1
     6     4     2   ar
     7     5     6   ar
     8     5     3   ar
     9     6     4   ar
    10     7     9   ar
    11     8     9   ar
    12    10     7    1
    13    10    37    1
    14    10    11    1
    15    11    12   am
    16    11    13    2
    17    12    14    1
    18    14    39    1
    19    14    40    1
    20    15    17   ar
    21    16    18   ar
    22    16    15   ar
    23    17    19   ar
    24    17    42    1
    25    18    20   ar
    26    19    14    1
    27    20    44    1
    28    20    19   ar
    29    21    15    1
    30    22    24   ar
    31    22    23   ar
    32    23    25   ar
    33    24    26   ar
    34    25    27   ar
    35    25    47    1
    36    26    12    1
    37    26    27   ar
    38    27    48    1
    39    28    23    1
    40    28    30   ar
    41    29    31   ar
    42    29    28   ar
    43    31    32   ar
    44    32    51    1
    45    32    30   ar
    46    33     3    1
    47    35     5    1
    48    36     6    1
    49    38    10    1
    50    41    16    1
    51    43    18    1
    52    45    22    1
    53    46    24    1
    54    49    29    1
    55    50    31    1
