@<TRIPOS>MOLECULE
./Mol40.log
 50 54 0 0 0
SMALL
GASTEIGER

@<TRIPOS>ATOM
      1 CL         -3.1058   -0.5756    0.0010 Cl      1  UNL1       -0.1271
      2 C          -1.8384    0.5937    0.3513 C.ar    1  UNL1        0.0874
      3 C          -1.7368    1.1348    1.6332 C.ar    1  UNL1       -0.1074
      4 C          -0.7198    2.0591    1.8887 C.ar    1  UNL1       -0.0688
      5 C           0.1761    2.4359    0.8859 C.ar    1  UNL1       -0.1296
      6 C           0.0701    1.8838   -0.3994 C.ar    1  UNL1        0.1215
      7 C          -0.9468    0.9543   -0.6610 C.ar    1  UNL1       -0.1228
      8 C           0.9940    2.3069   -1.5298 C.3     1  UNL1       -0.0306
      9 N           2.4060    2.5190   -1.1527 N.am    1  UNL1       -0.4531
     10 C           3.2460    1.4378   -0.9081 C.2     1  UNL1        0.6090
     11 O           4.3948    1.5400   -0.5167 O.2     1  UNL1       -0.5037
     12 C           2.6400    0.0424   -1.1639 C.3     1  UNL1        0.0141
     13 N           3.6067   -1.0046   -0.9594 N.ar    1  UNL1        0.2578
     14 N           4.1370   -1.6474   -2.0454 N.ar    1  UNL1       -0.2132
     15 N           4.9782   -2.5387   -1.6488 N.ar    1  UNL1       -0.3453
     16 C           5.0317   -2.5052   -0.2682 C.ar    1  UNL1        0.4209
     17 C           5.7791   -3.2754    0.6401 C.ar    1  UNL1       -0.2656
     18 C           5.6093   -3.0126    1.9922 C.ar    1  UNL1       -0.0453
     19 C           4.7189   -2.0040    2.4418 C.ar    1  UNL1       -0.1189
     20 C           3.9751   -1.2312    1.5588 C.ar    1  UNL1       -0.1217
     21 C           4.1487   -1.5051    0.1923 C.ar    1  UNL1       -0.0686
     22 C           2.8506    3.8724   -1.0046 C.ar    1  UNL1        0.6153
     23 C           4.2062    4.2534   -1.0383 C.ar    1  UNL1       -0.4114
     24 C           4.5080    5.6050   -0.9275 C.ar    1  UNL1        0.1046
     25 C           3.4926    6.5665   -0.7720 C.ar    1  UNL1       -0.1265
     26 C           2.1826    6.0643   -0.7500 C.ar    1  UNL1        0.1679
     27 N           1.8700    4.7703   -0.8639 N.ar    1  UNL1       -0.4342
     28 C           3.7691    8.0010   -0.6405 C.ar    1  UNL1       -0.0091
     29 C           4.9420    8.6117   -0.2030 C.ar    1  UNL1       -0.1585
     30 N           4.7201    9.9499   -0.2519 N.ar    1  UNL1        0.0530
     31 N           3.4899   10.2750   -0.6921 N.ar    1  UNL1       -0.4244
     32 C           2.9084    9.1014   -0.9267 C.ar    1  UNL1        0.1061
     33 H          -2.4389    0.8359    2.4118 H       1  UNL1        0.1036
     34 H          -0.6312    2.4945    2.8866 H       1  UNL1        0.0996
     35 H           0.9517    3.1726    1.0945 H       1  UNL1        0.0867
     36 H          -1.0506    0.5069   -1.6515 H       1  UNL1        0.0855
     37 H           0.9450    1.5732   -2.3466 H       1  UNL1        0.1220
     38 H           0.6427    3.2660   -1.9278 H       1  UNL1        0.0418
     39 H           1.7632   -0.1211   -0.5187 H       1  UNL1       -0.0030
     40 H           2.3114   -0.0498   -2.2086 H       1  UNL1        0.0016
     41 H           6.4613   -4.0469    0.2801 H       1  UNL1        0.1300
     42 H           6.1713   -3.5881    2.7306 H       1  UNL1        0.0855
     43 H           4.6203   -1.8273    3.5151 H       1  UNL1        0.0996
     44 H           3.3053   -0.4465    1.9123 H       1  UNL1        0.0923
     45 H           4.9900    3.5117   -1.1470 H       1  UNL1        0.1868
     46 H           5.5535    5.9169   -0.9824 H       1  UNL1        0.0681
     47 H           1.3338    6.7421   -0.6171 H       1  UNL1        0.0441
     48 H           5.8835    8.2002    0.1506 H       1  UNL1        0.1332
     49 H           1.8922    9.0783   -1.3153 H       1  UNL1        0.0933
     50 H           5.3633   10.6880    0.0040 H       1  UNL1        0.2574
@<TRIPOS>BOND
     1     1     2    1
     2     2     3   ar
     3     3     4   ar
     4     3    33    1
     5     4    34    1
     6     5    35    1
     7     5     4   ar
     8     6     5   ar
     9     7     6   ar
    10     7     2   ar
    11     8     9    1
    12     8     6    1
    13     9    10   am
    14     9    22    1
    15    10    11    2
    16    12    13    1
    17    12    10    1
    18    12    39    1
    19    13    21   ar
    20    14    15   ar
    21    14    13   ar
    22    15    16   ar
    23    16    21   ar
    24    16    17   ar
    25    17    18   ar
    26    18    19   ar
    27    18    42    1
    28    19    43    1
    29    20    44    1
    30    20    19   ar
    31    21    20   ar
    32    22    23   ar
    33    22    27   ar
    34    23    24   ar
    35    24    46    1
    36    24    25   ar
    37    25    28    1
    38    26    25   ar
    39    26    47    1
    40    27    26   ar
    41    28    29   ar
    42    29    30   ar
    43    29    48    1
    44    30    50    1
    45    31    30   ar
    46    32    28   ar
    47    32    31   ar
    48    36     7    1
    49    37     8    1
    50    38     8    1
    51    40    12    1
    52    41    17    1
    53    45    23    1
    54    49    32    1
