@<TRIPOS>MOLECULE
/home/lqcapf-6/arquivos_joao/4D/Alinhamento/alinhadas1/Mol09_PAC_aligned.pdb
 41 44 0 0 0
SMALL
GASTEIGER

@<TRIPOS>ATOM
      1  O         15.6860   18.5900   19.5320 O.2     1  UNL1       -0.2732
      2  C         15.7810   19.5120   18.7440 C.2     1  UNL1        0.2416
      3  C         17.0020   19.7270   17.8260 C.3     1  UNL1        0.1204
      4  N         18.0910   18.7690   18.0860 N.ar    1  UNL1       -0.2351
      5  N         19.2350   19.1490   18.6870 N.ar    1  UNL1       -0.0641
      6  N         20.0150   18.0940   18.8400 N.ar    1  UNL1       -0.1295
      7  C         19.2550   17.0390   18.3900 C.ar    1  UNL1        0.1127
      8  C         19.5950   15.7060   18.3360 C.ar    1  UNL1       -0.0324
      9  C         18.7070   14.8520   17.6040 C.ar    1  UNL1       -0.0596
     10  C         17.4410   15.2400   17.1340 C.ar    1  UNL1       -0.0596
     11  C         17.0840   16.5890   17.3250 C.ar    1  UNL1       -0.0345
     12  C         18.0600   17.3950   17.9010 C.ar    1  UNL1        0.0895
     13  N         14.6890   20.4220   18.5590 N.am    1  UNL1       -0.2658
     14  C         13.3730   20.0840   19.1050 C.3     1  UNL1        0.0419
     15  C         12.8420   18.9960   18.2890 C.2     1  UNL1       -0.0410
     16  C         12.6630   17.6820   18.7610 C.3     1  UNL1        0.0032
     17  C         12.2760   16.7810   17.7740 C.3     1  UNL1        0.0291
     18  S         11.5320   17.7560   16.3830 S.3     1  UNL1       -0.1279
     19  C         12.3270   19.1900   17.0260 C.2     1  UNL1       -0.0273
     20  C         14.8660   21.5660   17.7480 C.ar    1  UNL1        0.0367
     21  C         15.1380   22.8130   18.4070 C.ar    1  UNL1       -0.0403
     22  C         15.4200   23.9700   17.6600 C.ar    1  UNL1       -0.0600
     23  C         15.4090   23.9450   16.3140 C.ar    1  UNL1       -0.0616
     24  C         14.9970   22.7830   15.6320 C.ar    1  UNL1       -0.0600
     25  C         14.7670   21.5300   16.3260 C.ar    1  UNL1       -0.0403
     26  H         16.7140   19.4900   16.7950 H       1  UNL1        0.0606
     27  H         17.3640   20.7480   17.9990 H       1  UNL1        0.0606
     28  H         20.6100   15.3850   18.5510 H       1  UNL1        0.0640
     29  H         19.0410   13.8260   17.4900 H       1  UNL1        0.0618
     30  H         16.7100   14.4790   16.8740 H       1  UNL1        0.0618
     31  H         16.1280   17.0310   17.0610 H       1  UNL1        0.0639
     32  H         13.3710   19.8300   20.1730 H       1  UNL1        0.0515
     33  H         12.6600   20.9180   19.0790 H       1  UNL1        0.0515
     34  H         12.9210   17.3570   19.7610 H       1  UNL1        0.0364
     35  H         12.1920   15.7040   17.8440 H       1  UNL1        0.0432
     36  H         12.4210   20.0580   16.3890 H       1  UNL1        0.0690
     37  H         15.1780   22.9380   19.4840 H       1  UNL1        0.0636
     38  H         15.6150   24.8960   18.1930 H       1  UNL1        0.0618
     39  H         15.6260   24.8620   15.7750 H       1  UNL1        0.0618
     40  H         14.9290   22.8240   14.5500 H       1  UNL1        0.0618
     41  H         14.4870   20.6360   15.7770 H       1  UNL1        0.0636
@<TRIPOS>BOND
     1     1     2    2
     2     2     3    1
     3     2    13   am
     4     3    27    1
     5     3     4    1
     6     3    26    1
     7     4     5   ar
     8     4    12   ar
     9     5     6   ar
    10     6     7   ar
    11     7     8   ar
    12     7    12   ar
    13     8    28    1
    14     8     9   ar
    15     9    29    1
    16     9    10   ar
    17    10    11   ar
    18    10    30    1
    19    11    12   ar
    20    11    31    1
    21    13    20    1
    22    13    14    1
    23    14    32    1
    24    14    33    1
    25    14    15    1
    26    15    19    2
    27    15    16    1
    28    16    34    1
    29    16    17    1
    30    17    18    1
    31    17    35    1
    32    18    19    1
    33    19    36    1
    34    20    21   ar
    35    20    25   ar
    36    21    22   ar
    37    21    37    1
    38    22    38    1
    39    22    23   ar
    40    23    39    1
    41    23    24   ar
    42    24    40    1
    43    24    25   ar
    44    25    41    1
