@<TRIPOS>MOLECULE
/home/lqcapf-6/arquivos_joao/4D/Alinhamento/alinhadas1/Mol01_PAC_aligned.pdb
 52 56 0 0 0
SMALL
GASTEIGER

@<TRIPOS>ATOM
      1  O         20.8810   23.4440   17.2270 O.2     1  UNL1       -0.2732
      2  C         20.3570   23.7340   18.2630 C.2     1  UNL1        0.2416
      3  C         20.6560   25.0910   18.9470 C.3     1  UNL1        0.1204
      4  N         22.0580   25.6400   18.8060 N.ar    1  UNL1       -0.2351
      5  N         22.3240   26.7380   18.0520 N.ar    1  UNL1       -0.0641
      6  N         23.6380   26.9540   18.1020 N.ar    1  UNL1       -0.1295
      7  C         24.1130   26.0690   18.9270 C.ar    1  UNL1        0.1127
      8  C         25.4440   25.8620   19.2990 C.ar    1  UNL1       -0.0324
      9  C         25.8010   24.7330   20.0720 C.ar    1  UNL1       -0.0596
     10  C         24.8320   23.8670   20.5350 C.ar    1  UNL1       -0.0596
     11  C         23.4940   24.1390   20.1930 C.ar    1  UNL1       -0.0345
     12  C         23.2350   25.2190   19.4070 C.ar    1  UNL1        0.0895
     13  N         19.5010   22.8000   18.8880 N.am    1  UNL1       -0.2656
     14  C         18.5360   23.2810   19.9650 C.3     1  UNL1        0.0454
     15  C         17.3440   23.9500   19.3680 C.ar    1  UNL1       -0.0227
     16  C         16.1910   23.1800   19.0420 C.ar    1  UNL1       -0.0500
     17  C         15.1260   23.9850   18.6690 C.ar    1  UNL1       -0.0240
     18  S         15.5450   25.6940   18.6480 S.2     1  UNL1       -0.1047
     19  C         17.1690   25.2800   19.1400 C.ar    1  UNL1       -0.0196
     20  C         19.4060   21.4340   18.5730 C.ar    1  UNL1        0.0368
     21  C         18.6270   20.9530   17.4930 C.ar    1  UNL1       -0.0385
     22  C         18.5230   19.6030   17.2110 C.ar    1  UNL1       -0.0387
     23  C         18.9530   18.6260   18.1840 C.ar    1  UNL1        0.0335
     24  C         19.6550   19.1520   19.3210 C.ar    1  UNL1       -0.0387
     25  C         19.8940   20.5390   19.4220 C.ar    1  UNL1       -0.0385
     26  N         18.7960   17.2660   18.0460 N.am    1  UNL1       -0.2853
     27  C         17.7300   16.5400   17.5110 C.2     1  UNL1        0.2203
     28  O         16.7420   17.1210   17.1560 O.2     1  UNL1       -0.2752
     29  C         17.8880   15.0270   17.3550 C.3     1  UNL1        0.0359
     30  C         18.6650   14.2300   18.3950 C.3     1  UNL1       -0.0412
     31  C         19.1600   14.3320   16.9130 C.3     1  UNL1       -0.0412
     32  H         20.0650   25.8710   18.4520 H       1  UNL1        0.0606
     33  H         20.5140   25.1240   20.0340 H       1  UNL1        0.0606
     34  H         26.2170   26.5550   18.9820 H       1  UNL1        0.0640
     35  H         26.8300   24.5720   20.3810 H       1  UNL1        0.0618
     36  H         25.0690   23.0200   21.1710 H       1  UNL1        0.0618
     37  H         22.7450   23.4130   20.4950 H       1  UNL1        0.0639
     38  H         18.0610   22.4260   20.4610 H       1  UNL1        0.0518
     39  H         19.0830   23.7710   20.7800 H       1  UNL1        0.0518
     40  H         15.9930   22.1200   19.1530 H       1  UNL1        0.0626
     41  H         14.0630   23.8210   18.5580 H       1  UNL1        0.0693
     42  H         17.9370   26.0310   19.2690 H       1  UNL1        0.0696
     43  H         18.2690   21.6240   16.7190 H       1  UNL1        0.0637
     44  H         17.8930   19.3500   16.3630 H       1  UNL1        0.0637
     45  H         20.1360   18.4330   19.9780 H       1  UNL1        0.0637
     46  H         20.5630   20.8790   20.2070 H       1  UNL1        0.0637
     47  H         19.5840   16.6700   18.2680 H       1  UNL1        0.1548
     48  H         16.9790   14.5690   16.9720 H       1  UNL1        0.0394
     49  H         19.2070   14.8140   19.1340 H       1  UNL1        0.0273
     50  H         18.0240   13.4120   18.7140 H       1  UNL1        0.0273
     51  H         18.9800   13.4690   16.2760 H       1  UNL1        0.0273
     52  H         19.9770   15.0080   16.6770 H       1  UNL1        0.0273
@<TRIPOS>BOND
     1     1     2    2
     2     2    13   am
     3     2     3    1
     4     3    32    1
     5     3     4    1
     6     3    33    1
     7     4     5   ar
     8     4    12   ar
     9     5     6   ar
    10     6     7   ar
    11     7     8   ar
    12     7    12   ar
    13     8    34    1
    14     8     9   ar
    15     9    35    1
    16     9    10   ar
    17    10    11   ar
    18    10    36    1
    19    11    12   ar
    20    11    37    1
    21    13    20    1
    22    13    14    1
    23    14    15    1
    24    14    38    1
    25    14    39    1
    26    15    16   ar
    27    15    19   ar
    28    16    17   ar
    29    16    40    1
    30    17    41    1
    31    17    18   ar
    32    18    19   ar
    33    19    42    1
    34    20    21   ar
    35    20    25   ar
    36    21    43    1
    37    21    22   ar
    38    22    44    1
    39    22    23   ar
    40    23    26    1
    41    23    24   ar
    42    24    25   ar
    43    24    45    1
    44    25    46    1
    45    26    27   am
    46    26    47    1
    47    27    28    2
    48    27    29    1
    49    29    31    1
    50    29    48    1
    51    29    30    1
    52    30    31    1
    53    30    50    1
    54    30    49    1
    55    31    51    1
    56    31    52    1
