@<TRIPOS>MOLECULE
/home/lqcapf-6/arquivos_joao/4D/Alinhamento/alinhadas1/Mol07_PAC_aligned.pdb
 51 55 0 0 0
SMALL
GASTEIGER

@<TRIPOS>ATOM
      1  O         17.0380   21.2920   20.0100 O.2     1  UNL1       -0.2735
      2  C         16.6300   20.2220   19.6450 C.2     1  UNL1        0.2390
      3  C         16.8090   19.6940   18.2240 C.3     1  UNL1        0.1082
      4  N         18.0150   18.7580   18.2350 N.pl3   1  UNL1       -0.2199
      5  N         19.2780   19.1760   18.6540 N.3     1  UNL1       -0.0148
      6  N         19.9660   18.1250   18.7970 N.pl3   1  UNL1       -0.1285
      7  C         19.2850   17.0000   18.3400 C.ar    1  UNL1        0.0926
      8  C         18.0590   17.4870   17.8700 C.ar    1  UNL1        0.0723
      9  C         17.1370   16.6280   17.3400 C.ar    1  UNL1       -0.0374
     10  C         17.4450   15.2730   17.1740 C.ar    1  UNL1       -0.0599
     11  C         18.6680   14.7850   17.6470 C.ar    1  UNL1       -0.0598
     12  C         19.6290   15.6010   18.2460 C.ar    1  UNL1       -0.0356
     13  N         15.8880   19.4040   20.5020 N.am    1  UNL1       -0.2657
     14  C         15.5280   19.8230   21.9190 C.3     1  UNL1        0.0454
     15  C         14.0840   20.3130   21.9300 C.ar    1  UNL1       -0.0227
     16  C         13.1060   19.5560   22.4810 C.ar    1  UNL1       -0.0196
     17  S         11.5740   20.4580   22.4800 S.2     1  UNL1       -0.1047
     18  C         12.3130   21.8160   21.6830 C.ar    1  UNL1       -0.0240
     19  C         13.6780   21.6050   21.4340 C.ar    1  UNL1       -0.0500
     20  C         15.6490   17.9720   20.2040 C.ar    1  UNL1        0.0367
     21  C         14.4620   17.5050   19.6300 C.ar    1  UNL1       -0.0397
     22  C         14.2550   16.1370   19.5410 C.ar    1  UNL1       -0.0523
     23  C         15.2230   15.1650   20.0130 C.ar    1  UNL1       -0.0178
     24  C         16.3700   15.6950   20.6330 C.ar    1  UNL1       -0.0523
     25  C         16.5950   17.0990   20.7440 C.ar    1  UNL1       -0.0397
     26  C         15.0980   13.7190   19.7380 C.ar    1  UNL1       -0.0179
     27  C         14.5420   13.3080   18.4920 C.ar    1  UNL1       -0.0540
     28  C         14.2780   11.9530   18.3250 C.ar    1  UNL1       -0.0612
     29  C         14.5040   11.0120   19.3180 C.ar    1  UNL1       -0.0617
     30  C         15.0510   11.3690   20.5380 C.ar    1  UNL1       -0.0612
     31  C         15.3850   12.7460   20.7140 C.ar    1  UNL1       -0.0540
     32  H         16.8660   20.5240   17.5090 H       1  UNL1        0.0576
     33  H         16.0320   19.0250   17.8320 H       1  UNL1        0.0576
     34  H         16.2130   17.0860   16.9980 H       1  UNL1        0.0637
     35  H         16.6460   14.6720   16.7510 H       1  UNL1        0.0618
     36  H         19.0040   13.7980   17.3450 H       1  UNL1        0.0618
     37  H         20.6730   15.3660   18.4290 H       1  UNL1        0.0638
     38  H         15.6680   19.0120   22.6440 H       1  UNL1        0.0518
     39  H         16.1710   20.6720   22.1860 H       1  UNL1        0.0518
     40  H         13.1640   18.5450   22.8610 H       1  UNL1        0.0696
     41  H         11.7810   22.7530   21.6010 H       1  UNL1        0.0693
     42  H         14.4140   22.3440   21.1430 H       1  UNL1        0.0626
     43  H         13.7200   18.1590   19.1820 H       1  UNL1        0.0636
     44  H         13.3890   15.8040   18.9760 H       1  UNL1        0.0624
     45  H         17.0680   14.9430   20.9910 H       1  UNL1        0.0624
     46  H         17.4790   17.5600   21.1710 H       1  UNL1        0.0636
     47  H         14.5420   14.0390   17.6900 H       1  UNL1        0.0624
     48  H         13.9360   11.5680   17.3690 H       1  UNL1        0.0618
     49  H         14.5690    9.9700   19.0170 H       1  UNL1        0.0618
     50  H         15.2910   10.5260   21.1790 H       1  UNL1        0.0618
     51  H         15.8410   13.0750   21.6420 H       1  UNL1        0.0624
@<TRIPOS>BOND
     1     1     2    2
     2     2    13   am
     3     2     3    1
     4     3    33    1
     5     3    32    1
     6     3     4    1
     7     4     8    1
     8     4     5    1
     9     5     6    1
    10     6     7    1
    11     7     8   ar
    12     7    12   ar
    13     8     9   ar
    14     9    34    1
    15     9    10   ar
    16    10    35    1
    17    10    11   ar
    18    11    36    1
    19    11    12   ar
    20    12    37    1
    21    13    14    1
    22    13    20    1
    23    14    15    1
    24    14    39    1
    25    14    38    1
    26    15    19   ar
    27    15    16   ar
    28    16    17   ar
    29    16    40    1
    30    17    18   ar
    31    18    41    1
    32    18    19   ar
    33    19    42    1
    34    20    21   ar
    35    20    25   ar
    36    21    43    1
    37    21    22   ar
    38    22    44    1
    39    22    23   ar
    40    23    26    1
    41    23    24   ar
    42    24    25   ar
    43    24    45    1
    44    25    46    1
    45    26    27   ar
    46    26    31   ar
    47    27    47    1
    48    27    28   ar
    49    28    48    1
    50    28    29   ar
    51    29    49    1
    52    29    30   ar
    53    30    31   ar
    54    30    50    1
    55    31    51    1
