@<TRIPOS>MOLECULE
/home/lqcapf-6/arquivos_joao/4D/Alinhamento/alinhadas1/Mol08_PAC_aligned.pdb
 50 54 0 0 0
SMALL
GASTEIGER

@<TRIPOS>ATOM
      1  O         23.1060   18.1010   20.1130 O.2     1  UNL1       -0.2732
      2  C         22.3880   17.1210   20.2080 C.2     1  UNL1        0.2416
      3  C         21.6760   16.6100   18.9440 C.3     1  UNL1        0.1204
      4  N         20.2940   17.2070   18.8130 N.ar    1  UNL1       -0.2351
      5  N         20.0880   18.5650   19.0010 N.ar    1  UNL1       -0.0641
      6  N         18.9010   18.8600   18.5240 N.ar    1  UNL1       -0.1295
      7  C         18.3700   17.6830   18.0140 C.ar    1  UNL1        0.1127
      8  C         19.2180   16.6310   18.2170 C.ar    1  UNL1        0.0895
      9  C         18.9120   15.2950   17.9800 C.ar    1  UNL1       -0.0345
     10  C         17.7200   15.0060   17.3200 C.ar    1  UNL1       -0.0596
     11  C         16.8310   16.0820   17.0620 C.ar    1  UNL1       -0.0596
     12  C         17.1500   17.5030   17.3730 C.ar    1  UNL1       -0.0324
     13  N         22.1330   16.4340   21.4130 N.am    1  UNL1       -0.2656
     14  C         22.5690   17.0400   22.6820 C.3     1  UNL1        0.0454
     15  C         22.6860   16.1810   23.9160 C.ar    1  UNL1       -0.0227
     16  C         21.8240   16.1510   25.0160 C.ar    1  UNL1       -0.0196
     17  S         22.4710   15.2430   26.4070 S.2     1  UNL1       -0.1047
     18  C         23.9910   15.0200   25.5100 C.ar    1  UNL1       -0.0240
     19  C         23.9550   15.5720   24.2020 C.ar    1  UNL1       -0.0500
     20  C         21.1800   15.3090   21.4080 C.ar    1  UNL1        0.0367
     21  C         19.8340   15.5500   21.7580 C.ar    1  UNL1       -0.0397
     22  C         18.8890   14.5060   21.7210 C.ar    1  UNL1       -0.0522
     23  C         19.2450   13.1500   21.4290 C.ar    1  UNL1       -0.0163
     24  C         20.6240   12.9040   21.2700 C.ar    1  UNL1       -0.0522
     25  C         21.5380   13.9620   21.2500 C.ar    1  UNL1       -0.0397
     26  C         18.2770   12.0200   21.4980 C.ar    1  UNL1        0.0002
     27  C         17.0170   12.0390   22.2240 C.ar    1  UNL1        0.0352
     28  N         16.0900   11.0630   22.3410 N.ar    1  UNL1       -0.2627
     29  C         16.4520    9.8380   21.8580 C.ar    1  UNL1        0.0276
     30  C         17.6540    9.6390   21.2210 C.ar    1  UNL1       -0.0430
     31  C         18.5790   10.7250   21.0610 C.ar    1  UNL1       -0.0512
     32  H         21.6640   15.5150   18.8970 H       1  UNL1        0.0606
     33  H         22.2730   16.9040   18.0710 H       1  UNL1        0.0606
     34  H         19.6410   14.4970   18.0920 H       1  UNL1        0.0639
     35  H         17.4750   13.9720   17.0950 H       1  UNL1        0.0618
     36  H         15.9090   15.8050   16.5580 H       1  UNL1        0.0618
     37  H         16.5030   18.3600   17.2210 H       1  UNL1        0.0640
     38  H         23.5710   17.4330   22.4710 H       1  UNL1        0.0518
     39  H         21.9000   17.8960   22.8390 H       1  UNL1        0.0518
     40  H         20.8720   16.6490   25.1350 H       1  UNL1        0.0696
     41  H         24.7370   14.4480   26.0460 H       1  UNL1        0.0693
     42  H         24.7510   15.4700   23.4740 H       1  UNL1        0.0626
     43  H         19.4890   16.5490   22.0090 H       1  UNL1        0.0636
     44  H         17.8430   14.7250   21.9140 H       1  UNL1        0.0624
     45  H         20.9110   11.8570   21.2550 H       1  UNL1        0.0624
     46  H         22.6000   13.7810   21.1130 H       1  UNL1        0.0636
     47  H         16.7700   12.9030   22.8390 H       1  UNL1        0.0836
     48  H         15.7480    9.0220   22.0120 H       1  UNL1        0.0829
     49  H         18.0220    8.6820   20.8650 H       1  UNL1        0.0633
     50  H         19.4400   10.5080   20.4350 H       1  UNL1        0.0625
@<TRIPOS>BOND
     1     1     2    2
     2     2    13   am
     3     2     3    1
     4     3     4    1
     5     3    33    1
     6     3    32    1
     7     4     5   ar
     8     4     8   ar
     9     5     6   ar
    10     6     7   ar
    11     7    12   ar
    12     7     8   ar
    13     8     9   ar
    14     9    10   ar
    15     9    34    1
    16    10    11   ar
    17    10    35    1
    18    11    12   ar
    19    11    36    1
    20    12    37    1
    21    13    14    1
    22    13    20    1
    23    14    39    1
    24    14    38    1
    25    14    15    1
    26    15    16   ar
    27    15    19   ar
    28    16    40    1
    29    16    17   ar
    30    17    18   ar
    31    18    19   ar
    32    18    41    1
    33    19    42    1
    34    20    21   ar
    35    20    25   ar
    36    21    43    1
    37    21    22   ar
    38    22    44    1
    39    22    23   ar
    40    23    24   ar
    41    23    26    1
    42    24    25   ar
    43    24    45    1
    44    25    46    1
    45    26    27   ar
    46    26    31   ar
    47    27    47    1
    48    27    28   ar
    49    28    29   ar
    50    29    48    1
    51    29    30   ar
    52    30    31   ar
    53    30    49    1
    54    31    50    1
