@<TRIPOS>MOLECULE
/home/lqcapf-6/arquivos_joao/4D/Alinhamento/alinhadas1/Mol16_PAC_aligned.pdb
 54 58 0 0 0
SMALL
GASTEIGER

@<TRIPOS>ATOM
      1  C         15.4470   17.6570   20.1170 C.3     1  UNL1        0.0804
      2  O         16.3550   17.3380   19.0260 O.3     1  UNL1       -0.4792
      3  C         17.6440   18.0130   18.8700 C.ar    1  UNL1        0.2224
      4  N         17.7440   19.2330   19.4890 N.ar    1  UNL1       -0.2208
      5  C         18.9040   19.9380   19.3110 C.ar    1  UNL1        0.0314
      6  C         19.9010   19.5170   18.4570 C.ar    1  UNL1       -0.0428
      7  C         19.7180   18.3070   17.7510 C.ar    1  UNL1       -0.0475
      8  C         18.5590   17.4580   18.0070 C.ar    1  UNL1        0.0437
      9  C         18.3590   16.1950   17.3240 C.ar    1  UNL1       -0.0127
     10  C         17.8610   15.0060   18.0670 C.ar    1  UNL1       -0.0521
     11  C         17.9340   13.7250   17.5690 C.ar    1  UNL1       -0.0397
     12  C         18.5020   13.4550   16.3280 C.ar    1  UNL1        0.0367
     13  C         18.9710   14.4970   15.5580 C.ar    1  UNL1       -0.0397
     14  C         18.7850   15.8710   16.0190 C.ar    1  UNL1       -0.0521
     15  N         18.6160   12.1740   15.7770 N.am    1  UNL1       -0.2656
     16  C         19.2800   11.1280   16.5940 C.3     1  UNL1        0.0454
     17  C         20.3660   11.6980   17.5130 C.ar    1  UNL1       -0.0227
     18  C         21.4090   12.4330   17.0180 C.ar    1  UNL1       -0.0500
     19  C         22.3160   12.7320   18.0290 C.ar    1  UNL1       -0.0240
     20  S         21.7560   12.2330   19.6120 S.2     1  UNL1       -0.1047
     21  C         20.3510   11.4610   18.8820 C.ar    1  UNL1       -0.0196
     22  C         18.1080   11.8340   14.4740 C.2     1  UNL1        0.2416
     23  O         17.5870   12.7150   13.7960 O.2     1  UNL1       -0.2732
     24  C         17.9210   10.3930   14.0890 C.3     1  UNL1        0.1204
     25  N         16.5200    9.9780   14.3270 N.ar    1  UNL1       -0.2351
     26  N         15.4500   10.5340   13.6520 N.ar    1  UNL1       -0.0641
     27  N         14.2990   10.0040   14.0380 N.ar    1  UNL1       -0.1295
     28  C         14.6880    8.9950   14.9310 C.ar    1  UNL1        0.1127
     29  C         13.9030    8.1330   15.7440 C.ar    1  UNL1       -0.0324
     30  C         14.6300    7.2410   16.6320 C.ar    1  UNL1       -0.0596
     31  C         16.0230    7.3460   16.7990 C.ar    1  UNL1       -0.0596
     32  C         16.8010    8.2390   16.0880 C.ar    1  UNL1       -0.0345
     33  C         16.0760    9.0300   15.1150 C.ar    1  UNL1        0.0895
     34  H         15.4370   18.7300   20.3420 H       1  UNL1        0.0660
     35  H         14.3710   17.4770   19.9900 H       1  UNL1        0.0660
     36  H         15.8120   17.2840   21.0810 H       1  UNL1        0.0660
     37  H         19.0340   20.8890   19.8250 H       1  UNL1        0.0831
     38  H         20.8550   20.0240   18.3480 H       1  UNL1        0.0633
     39  H         20.4720   18.0350   17.0180 H       1  UNL1        0.0626
     40  H         17.3990   15.2440   19.0210 H       1  UNL1        0.0624
     41  H         17.6530   12.8660   18.1710 H       1  UNL1        0.0636
     42  H         19.4100   14.3790   14.5720 H       1  UNL1        0.0636
     43  H         19.1580   16.6920   15.4140 H       1  UNL1        0.0624
     44  H         18.4610   10.6540   17.1490 H       1  UNL1        0.0518
     45  H         19.7950   10.3410   16.0290 H       1  UNL1        0.0518
     46  H         21.6530   12.5170   15.9660 H       1  UNL1        0.0626
     47  H         23.3440   13.0140   17.8400 H       1  UNL1        0.0693
     48  H         19.5740   10.9980   19.4760 H       1  UNL1        0.0696
     49  H         18.1410   10.3760   13.0140 H       1  UNL1        0.0606
     50  H         18.5930    9.6520   14.5380 H       1  UNL1        0.0606
     51  H         12.8190    8.2010   15.7320 H       1  UNL1        0.0640
     52  H         14.1540    6.6490   17.4080 H       1  UNL1        0.0618
     53  H         16.4240    6.6640   17.5420 H       1  UNL1        0.0618
     54  H         17.8810    8.2680   16.2000 H       1  UNL1        0.0639
@<TRIPOS>BOND
     1     1    35    1
     2     1    36    1
     3     1    34    1
     4     1     2    1
     5     2     3    1
     6     3     4   ar
     7     3     8   ar
     8     4     5   ar
     9     5    37    1
    10     5     6   ar
    11     6     7   ar
    12     6    38    1
    13     7     8   ar
    14     7    39    1
    15     8     9    1
    16     9    10   ar
    17     9    14   ar
    18    10    40    1
    19    10    11   ar
    20    11    41    1
    21    11    12   ar
    22    12    15    1
    23    12    13   ar
    24    13    14   ar
    25    13    42    1
    26    14    43    1
    27    15    16    1
    28    15    22   am
    29    16    44    1
    30    16    17    1
    31    16    45    1
    32    17    21   ar
    33    17    18   ar
    34    18    19   ar
    35    18    46    1
    36    19    20   ar
    37    19    47    1
    38    20    21   ar
    39    21    48    1
    40    22    24    1
    41    22    23    2
    42    24    25    1
    43    24    50    1
    44    24    49    1
    45    25    33   ar
    46    25    26   ar
    47    26    27   ar
    48    27    28   ar
    49    28    29   ar
    50    28    33   ar
    51    29    51    1
    52    29    30   ar
    53    30    52    1
    54    30    31   ar
    55    31    53    1
    56    31    32   ar
    57    32    33   ar
    58    32    54    1
