@<TRIPOS>MOLECULE
/home/lqcapf-6/arquivos_joao/4D/Alinhamento/alinhadas1/Mol10_PAC_aligned.pdb
 45 48 0 0 0
SMALL
GASTEIGER

@<TRIPOS>ATOM
      1  N         17.9510   21.0600   15.9810 N.am    1  UNL1       -0.3253
      2  C         18.7510   20.7110   17.0220 C.2     1  UNL1        0.2415
      3  O         19.7600   21.3140   17.3550 O.2     1  UNL1       -0.2704
      4  C         18.5310   19.3760   17.5750 C.ar    1  UNL1        0.0366
      5  C         19.4250   18.8750   18.5070 C.ar    1  UNL1       -0.0479
      6  C         19.3150   17.5670   18.9300 C.ar    1  UNL1       -0.0395
      7  C         18.2440   16.6940   18.4450 C.ar    1  UNL1        0.0367
      8  C         17.2360   17.2840   17.7310 C.ar    1  UNL1       -0.0395
      9  C         17.3930   18.5430   17.2380 C.ar    1  UNL1       -0.0479
     10  N         18.1860   15.3360   18.7270 N.am    1  UNL1       -0.2658
     11  C         18.9220   14.3570   17.8910 C.3     1  UNL1        0.0420
     12  C         20.2300   14.8010   17.2600 C.2     1  UNL1       -0.0406
     13  C         20.3730   14.7640   15.8050 C.2     1  UNL1       -0.0680
     14  C         21.4520   15.5290   15.3830 C.3     1  UNL1        0.0395
     15  S         22.4810   15.8530   16.7510 S.3     1  UNL1       -0.1426
     16  C         21.3050   15.3330   17.9590 C.3     1  UNL1        0.0439
     17  C         17.3530   14.8560   19.8300 C.2     1  UNL1        0.2416
     18  O         16.7190   15.6130   20.6080 O.2     1  UNL1       -0.2732
     19  C         17.2120   13.3580   20.1070 C.3     1  UNL1        0.1204
     20  N         18.3040   12.6400   20.7610 N.ar    1  UNL1       -0.2351
     21  N         18.8460   11.5340   20.2160 N.ar    1  UNL1       -0.0641
     22  N         19.8670   11.2110   20.8910 N.ar    1  UNL1       -0.1295
     23  C         20.0710   12.1080   21.8560 C.ar    1  UNL1        0.1127
     24  C         21.0380   12.1110   22.8790 C.ar    1  UNL1       -0.0324
     25  C         20.8470   13.0830   23.9000 C.ar    1  UNL1       -0.0596
     26  C         19.7620   14.0560   23.7850 C.ar    1  UNL1       -0.0596
     27  C         18.8490   14.0990   22.6920 C.ar    1  UNL1       -0.0345
     28  C         19.0470   13.0370   21.7970 C.ar    1  UNL1        0.0895
     29  H         17.2250   20.4740   15.5850 H       1  UNL1        0.1453
     30  H         18.1530   21.9310   15.5070 H       1  UNL1        0.1453
     31  H         20.1880   19.5070   18.9520 H       1  UNL1        0.0626
     32  H         19.9760   17.1920   19.7060 H       1  UNL1        0.0636
     33  H         16.3250   16.7380   17.5060 H       1  UNL1        0.0636
     34  H         16.6360   18.9250   16.5600 H       1  UNL1        0.0626
     35  H         19.0510   13.4180   18.4420 H       1  UNL1        0.0515
     36  H         18.2880   14.1670   17.0170 H       1  UNL1        0.0515
     37  H         19.6040   14.3120   15.1880 H       1  UNL1        0.0584
     38  H         21.7570   15.8840   14.4080 H       1  UNL1        0.0469
     39  H         21.3800   15.4380   19.0340 H       1  UNL1        0.0472
     40  H         16.3080   13.1970   20.7080 H       1  UNL1        0.0606
     41  H         16.9560   12.8030   19.1960 H       1  UNL1        0.0606
     42  H         21.7880   11.3280   22.9300 H       1  UNL1        0.0640
     43  H         21.5090   12.9790   24.7550 H       1  UNL1        0.0618
     44  H         19.7590   14.7860   24.5900 H       1  UNL1        0.0618
     45  H         17.9960   14.7640   22.5980 H       1  UNL1        0.0639
@<TRIPOS>BOND
     1     1    29    1
     2     1     2   am
     3     1    30    1
     4     2     4    1
     5     2     3    2
     6     4     9   ar
     7     4     5   ar
     8     5     6   ar
     9     5    31    1
    10     6     7   ar
    11     6    32    1
    12     7    10    1
    13     7     8   ar
    14     8    33    1
    15     8     9   ar
    16     9    34    1
    17    10    17   am
    18    10    11    1
    19    11    35    1
    20    11    36    1
    21    11    12    1
    22    12    13    2
    23    12    16    1
    24    13    37    1
    25    13    14    1
    26    14    15    1
    27    14    38    1
    28    15    16    1
    29    16    39    1
    30    17    19    1
    31    17    18    2
    32    19    40    1
    33    19    41    1
    34    19    20    1
    35    20    21   ar
    36    20    28   ar
    37    21    22   ar
    38    22    23   ar
    39    23    28   ar
    40    23    24   ar
    41    24    25   ar
    42    24    42    1
    43    25    26   ar
    44    25    43    1
    45    26    27   ar
    46    26    44    1
    47    27    45    1
    48    27    28   ar
