@<TRIPOS>MOLECULE
/home/lqcapf-6/arquivos_joao/4D/Alinhamento/alinhadas1/Mol17_PAC_aligned.pdb
 48 52 0 0 0
SMALL
GASTEIGER

@<TRIPOS>ATOM
      1  S         19.5700    9.4900   17.9160 S.2     1  UNL1       -0.1032
      2  C         20.2760   10.9890   18.4220 C.ar    1  UNL1       -0.0225
      3  C         19.0500   10.2520   16.4140 C.ar    1  UNL1       -0.0025
      4  C         20.0490   12.0330   17.5400 C.ar    1  UNL1       -0.0329
      5  C         19.3230   11.6040   16.3210 C.ar    1  UNL1        0.0483
      6  N         19.0730   12.5280   15.2790 N.am    1  UNL1       -0.2383
      7  C         18.7140   16.4590   17.0140 C.ar    1  UNL1       -0.0126
      8  C         17.7000   15.4760   17.1110 C.ar    1  UNL1       -0.0521
      9  C         19.7550   16.1810   16.1250 C.ar    1  UNL1       -0.0521
     10  C         17.8310   14.2040   16.5800 C.ar    1  UNL1       -0.0393
     11  C         19.8430   14.9090   15.5250 C.ar    1  UNL1       -0.0393
     12  C         18.9320   13.8880   15.7140 C.ar    1  UNL1        0.0414
     13  C         18.9100   12.0520   13.9750 C.2     1  UNL1        0.2457
     14  C         18.2540   12.9450   12.9890 C.3     1  UNL1        0.1207
     15  O         19.3460   10.9860   13.5310 O.2     1  UNL1       -0.2729
     16  C         16.4430   14.6090   13.5570 C.ar    1  UNL1        0.0895
     17  N         16.9040   13.3310   13.3530 N.ar    1  UNL1       -0.2351
     18  C         15.1500   14.3010   14.0040 C.ar    1  UNL1        0.1127
     19  N         15.9240   12.4000   13.5810 N.ar    1  UNL1       -0.0641
     20  N         14.7560   13.0000   13.9140 N.ar    1  UNL1       -0.1295
     21  C         16.9610   15.8530   13.2730 C.ar    1  UNL1       -0.0345
     22  C         16.0960   16.9060   13.5530 C.ar    1  UNL1       -0.0596
     23  C         14.3290   15.3990   14.3770 C.ar    1  UNL1       -0.0324
     24  C         14.8200   16.6820   14.1910 C.ar    1  UNL1       -0.0596
     25  C         18.6070   20.1100   19.2230 C.ar    1  UNL1        0.0050
     26  N         17.5550   19.8090   18.3630 N.ar    1  UNL1       -0.3286
     27  C         19.7710   19.2670   19.1300 C.ar    1  UNL1       -0.0449
     28  C         17.4160   18.6610   17.6440 C.ar    1  UNL1        0.2565
     29  C         19.7350   18.1250   18.3370 C.ar    1  UNL1       -0.0475
     30  C         18.6010   17.8280   17.6020 C.ar    1  UNL1        0.0465
     31  O         16.4490   18.3830   17.0020 O.2     1  UNL1       -0.2672
     32  H         20.9220   10.9390   19.2870 H       1  UNL1        0.0694
     33  H         18.4270    9.7110   15.7140 H       1  UNL1        0.0712
     34  H         20.4010   13.0490   17.6710 H       1  UNL1        0.0642
     35  H         16.8480   15.6020   17.7740 H       1  UNL1        0.0624
     36  H         20.5580   16.8930   15.9630 H       1  UNL1        0.0624
     37  H         16.9530   13.5890   16.7560 H       1  UNL1        0.0636
     38  H         20.6930   14.7930   14.8580 H       1  UNL1        0.0636
     39  H         18.8320   13.8770   12.9400 H       1  UNL1        0.0606
     40  H         18.1740   12.4270   12.0270 H       1  UNL1        0.0606
     41  H         17.9400   16.0090   12.8280 H       1  UNL1        0.0639
     42  H         16.4590   17.9140   13.3800 H       1  UNL1        0.0618
     43  H         13.3810   15.1900   14.8620 H       1  UNL1        0.0640
     44  H         14.2640   17.5410   14.5550 H       1  UNL1        0.0618
     45  H         18.4280   20.9870   19.8300 H       1  UNL1        0.0808
     46  H         16.8280   20.5130   18.3420 H       1  UNL1        0.1683
     47  H         20.6980   19.4860   19.6460 H       1  UNL1        0.0632
     48  H         20.5980   17.4770   18.4400 H       1  UNL1        0.0626
@<TRIPOS>BOND
     1     1     2   ar
     2     1     3   ar
     3     2    32    1
     4     2     4   ar
     5     3    33    1
     6     3     5   ar
     7     4    34    1
     8     4     5   ar
     9     5     6    1
    10     6    12    1
    11     6    13   am
    12     7     8   ar
    13     7     9   ar
    14     7    30    1
    15     8    10   ar
    16     8    35    1
    17     9    11   ar
    18     9    36    1
    19    10    37    1
    20    10    12   ar
    21    11    12   ar
    22    11    38    1
    23    13    15    2
    24    13    14    1
    25    14    17    1
    26    14    40    1
    27    14    39    1
    28    16    17   ar
    29    16    18   ar
    30    16    21   ar
    31    17    19   ar
    32    18    20   ar
    33    18    23   ar
    34    19    20   ar
    35    21    41    1
    36    21    22   ar
    37    22    24   ar
    38    22    42    1
    39    23    43    1
    40    23    24   ar
    41    24    44    1
    42    25    27   ar
    43    25    45    1
    44    25    26   ar
    45    26    28   ar
    46    26    46    1
    47    27    47    1
    48    27    29   ar
    49    28    30   ar
    50    28    31    2
    51    29    48    1
    52    29    30   ar
