@<TRIPOS>MOLECULE
/home/lqcapf-6/arquivos_joao/4D/Alinhamento/alinhadas1/Mol11_PAC_aligned.pdb
 52 56 0 0 0
SMALL
GASTEIGER

@<TRIPOS>ATOM
      1  O         16.9290   21.1900   16.5550 O.2     1  UNL1       -0.2732
      2  C         17.0260   21.6250   17.6700 C.2     1  UNL1        0.2416
      3  C         16.7010   23.0850   17.9380 C.3     1  UNL1        0.1204
      4  N         15.9370   23.8220   16.8770 N.ar    1  UNL1       -0.2351
      5  N         14.7170   23.3620   16.5100 N.ar    1  UNL1       -0.0641
      6  N         14.0710   24.2760   15.8090 N.ar    1  UNL1       -0.1295
      7  C         14.9340   25.2780   15.6480 C.ar    1  UNL1        0.1127
      8  C         14.6850   26.4640   14.9360 C.ar    1  UNL1       -0.0324
      9  C         15.8520   27.3470   14.9010 C.ar    1  UNL1       -0.0596
     10  C         17.0970   27.0460   15.4860 C.ar    1  UNL1       -0.0596
     11  C         17.2470   25.8720   16.2150 C.ar    1  UNL1       -0.0345
     12  C         16.1200   25.0000   16.2980 C.ar    1  UNL1        0.0895
     13  N         17.4910   20.7850   18.6810 N.am    1  UNL1       -0.2656
     14  C         17.6530   21.1960   20.1010 C.3     1  UNL1        0.0454
     15  C         18.6730   22.2650   20.2000 C.ar    1  UNL1       -0.0227
     16  C         18.4360   23.2940   21.2300 C.ar    1  UNL1       -0.0500
     17  C         19.3780   24.3630   21.0900 C.ar    1  UNL1       -0.0240
     18  S         20.6750   23.9930   19.9670 S.2     1  UNL1       -0.1047
     19  C         19.7730   22.5360   19.4210 C.ar    1  UNL1       -0.0196
     20  C         17.9420   19.4350   18.4550 C.ar    1  UNL1        0.0367
     21  C         19.3050   18.9700   18.6480 C.ar    1  UNL1       -0.0395
     22  C         19.6780   17.6470   18.3870 C.ar    1  UNL1       -0.0479
     23  C         18.6960   16.7150   17.9020 C.ar    1  UNL1        0.0368
     24  C         17.4020   17.1360   17.6020 C.ar    1  UNL1       -0.0479
     25  C         17.0700   18.4750   17.9150 C.ar    1  UNL1       -0.0395
     26  C         18.9770   15.2240   17.8000 C.2     1  UNL1        0.2443
     27  O         18.2620   14.4640   17.1620 O.2     1  UNL1       -0.2702
     28  N         20.1510   14.7660   18.4320 N.am    1  UNL1       -0.3085
     29  C         20.5660   13.3980   18.6160 C.3     1  UNL1        0.0235
     30  C         22.0260   13.0600   18.9720 C.3     1  UNL1       -0.0328
     31  C         21.4650   12.7200   17.5520 C.3     1  UNL1       -0.0328
     32  H         16.1400   23.1040   18.8800 H       1  UNL1        0.0606
     33  H         17.6390   23.6180   18.1330 H       1  UNL1        0.0606
     34  H         13.8110   26.7120   14.3410 H       1  UNL1        0.0640
     35  H         15.7610   28.2050   14.2410 H       1  UNL1        0.0618
     36  H         17.9460   27.7160   15.3970 H       1  UNL1        0.0618
     37  H         18.2310   25.7260   16.6530 H       1  UNL1        0.0639
     38  H         16.7110   21.6460   20.4390 H       1  UNL1        0.0518
     39  H         17.8040   20.2980   20.7120 H       1  UNL1        0.0518
     40  H         17.5990   23.2570   21.9170 H       1  UNL1        0.0626
     41  H         19.3460   25.3280   21.5800 H       1  UNL1        0.0693
     42  H         20.1900   21.9540   18.6100 H       1  UNL1        0.0696
     43  H         20.0680   19.6700   18.9750 H       1  UNL1        0.0636
     44  H         20.7120   17.3200   18.3230 H       1  UNL1        0.0626
     45  H         16.5880   16.4410   17.4190 H       1  UNL1        0.0626
     46  H         16.0110   18.6360   17.7370 H       1  UNL1        0.0636
     47  H         20.6450   15.4260   19.0200 H       1  UNL1        0.1493
     48  H         19.8240   12.8020   19.1460 H       1  UNL1        0.0498
     49  H         22.6180   13.9640   19.0910 H       1  UNL1        0.0284
     50  H         22.2390   12.2020   19.6040 H       1  UNL1        0.0284
     51  H         21.1710   11.7170   17.2550 H       1  UNL1        0.0284
     52  H         21.8440   13.2390   16.6750 H       1  UNL1        0.0284
@<TRIPOS>BOND
     1     1     2    2
     2     2     3    1
     3     2    13   am
     4     3     4    1
     5     3    33    1
     6     3    32    1
     7     4    12   ar
     8     4     5   ar
     9     5     6   ar
    10     6     7   ar
    11     7     8   ar
    12     7    12   ar
    13     8     9   ar
    14     8    34    1
    15     9    35    1
    16     9    10   ar
    17    10    36    1
    18    10    11   ar
    19    11    37    1
    20    11    12   ar
    21    13    20    1
    22    13    14    1
    23    14    15    1
    24    14    38    1
    25    14    39    1
    26    15    19   ar
    27    15    16   ar
    28    16    17   ar
    29    16    40    1
    30    17    18   ar
    31    17    41    1
    32    18    19   ar
    33    19    42    1
    34    20    21   ar
    35    20    25   ar
    36    21    43    1
    37    21    22   ar
    38    22    44    1
    39    22    23   ar
    40    23    24   ar
    41    23    26    1
    42    24    25   ar
    43    24    45    1
    44    25    46    1
    45    26    28   am
    46    26    27    2
    47    28    47    1
    48    28    29    1
    49    29    31    1
    50    29    30    1
    51    29    48    1
    52    30    49    1
    53    30    31    1
    54    30    50    1
    55    31    52    1
    56    31    51    1
