@<TRIPOS>MOLECULE
/home/lqcapf-6/arquivos_joao/4D/Alinhamento/alinhadas1/Mol14_PAC_aligned.pdb
 50 54 0 0 0
SMALL
GASTEIGER

@<TRIPOS>ATOM
      1  O         20.5870   16.0790   21.3980 O.2     1  UNL1       -0.2732
      2  C         21.5170   16.0240   20.6330 C.2     1  UNL1        0.2416
      3  C         21.4790   16.5510   19.1850 C.3     1  UNL1        0.1204
      4  N         20.2590   17.2110   18.8970 N.ar    1  UNL1       -0.2351
      5  N         20.0880   18.5490   19.0580 N.ar    1  UNL1       -0.0641
      6  N         18.9360   18.8320   18.4450 N.ar    1  UNL1       -0.1295
      7  C         18.3230   17.6740   18.0050 C.ar    1  UNL1        0.1127
      8  C         17.1920   17.4170   17.3060 C.ar    1  UNL1       -0.0324
      9  C         16.8260   16.0840   17.0450 C.ar    1  UNL1       -0.0596
     10  C         17.7290   15.0440   17.3370 C.ar    1  UNL1       -0.0596
     11  C         18.9580   15.3580   17.9440 C.ar    1  UNL1       -0.0345
     12  C         19.1730   16.6640   18.2650 C.ar    1  UNL1        0.0895
     13  N         22.7400   15.4560   21.0910 N.am    1  UNL1       -0.2656
     14  C         23.9250   15.4700   20.2560 C.3     1  UNL1        0.0454
     15  C         23.7810   14.4560   19.1130 C.ar    1  UNL1       -0.0227
     16  C         24.1570   14.6530   17.7710 C.ar    1  UNL1       -0.0500
     17  C         24.1090   13.4540   17.0370 C.ar    1  UNL1       -0.0240
     18  S         23.6980   12.1320   18.0690 S.2     1  UNL1       -0.1047
     19  C         23.4720   13.2210   19.4240 C.ar    1  UNL1       -0.0196
     20  C         22.8430   14.8080   22.3730 C.ar    1  UNL1        0.0367
     21  C         23.7350   15.2820   23.3730 C.ar    1  UNL1       -0.0397
     22  C         23.7150   14.7270   24.7150 C.ar    1  UNL1       -0.0523
     23  C         22.7370   13.7310   24.9660 C.ar    1  UNL1       -0.0177
     24  C         21.8670   13.3090   23.9420 C.ar    1  UNL1       -0.0523
     25  C         21.9030   13.8140   22.6740 C.ar    1  UNL1       -0.0397
     26  C         22.8170   12.9170   26.2320 C.ar    1  UNL1       -0.0150
     27  C         23.9320   12.9870   27.0090 C.ar    1  UNL1       -0.0359
     28  C         24.0430   12.2900   28.1900 C.ar    1  UNL1        0.0281
     29  N         23.0690   11.4710   28.6330 N.ar    1  UNL1       -0.2632
     30  C         21.9440   11.2950   27.9120 C.ar    1  UNL1        0.0281
     31  C         21.7500   12.0240   26.7900 C.ar    1  UNL1       -0.0359
     32  H         22.1920   17.2900   18.8000 H       1  UNL1        0.0606
     33  H         21.5890   15.6660   18.5470 H       1  UNL1        0.0606
     34  H         16.5740   18.1880   16.8560 H       1  UNL1        0.0640
     35  H         15.8990   15.8680   16.5230 H       1  UNL1        0.0618
     36  H         17.5510   14.0070   17.0720 H       1  UNL1        0.0618
     37  H         19.6770   14.5880   18.2110 H       1  UNL1        0.0639
     38  H         23.9380   16.4520   19.7670 H       1  UNL1        0.0518
     39  H         24.7760   15.3780   20.9410 H       1  UNL1        0.0518
     40  H         24.2920   15.6690   17.4210 H       1  UNL1        0.0626
     41  H         24.3050   13.2910   15.9870 H       1  UNL1        0.0693
     42  H         23.2070   12.7980   20.3840 H       1  UNL1        0.0696
     43  H         24.3200   16.1830   23.2160 H       1  UNL1        0.0636
     44  H         24.5130   15.0580   25.3730 H       1  UNL1        0.0624
     45  H         21.1890   12.4820   24.1270 H       1  UNL1        0.0624
     46  H         21.2000   13.4430   21.9340 H       1  UNL1        0.0636
     47  H         24.8850   13.4430   26.7570 H       1  UNL1        0.0639
     48  H         24.8930   12.4610   28.8500 H       1  UNL1        0.0830
     49  H         21.2070   10.6200   28.3440 H       1  UNL1        0.0830
     50  H         20.7930   12.0260   26.2790 H       1  UNL1        0.0639
@<TRIPOS>BOND
     1     1     2    2
     2     2    13   am
     3     2     3    1
     4     3    32    1
     5     3    33    1
     6     3     4    1
     7     4     5   ar
     8     4    12   ar
     9     5     6   ar
    10     6     7   ar
    11     7    12   ar
    12     7     8   ar
    13     8    34    1
    14     8     9   ar
    15     9    10   ar
    16     9    35    1
    17    10    11   ar
    18    10    36    1
    19    11    12   ar
    20    11    37    1
    21    13    20    1
    22    13    14    1
    23    14    39    1
    24    14    38    1
    25    14    15    1
    26    15    19   ar
    27    15    16   ar
    28    16    40    1
    29    16    17   ar
    30    17    18   ar
    31    17    41    1
    32    18    19   ar
    33    19    42    1
    34    20    21   ar
    35    20    25   ar
    36    21    22   ar
    37    21    43    1
    38    22    44    1
    39    22    23   ar
    40    23    26    1
    41    23    24   ar
    42    24    25   ar
    43    24    45    1
    44    25    46    1
    45    26    27   ar
    46    26    31   ar
    47    27    47    1
    48    27    28   ar
    49    28    48    1
    50    28    29   ar
    51    29    30   ar
    52    30    49    1
    53    30    31   ar
    54    31    50    1
