@<TRIPOS>MOLECULE
/home/lqcapf-6/arquivos_joao/4D/Alinhamento/alinhadas1/Mol15_PAC_aligned.pdb
 50 54 0 0 0
SMALL
GASTEIGER

@<TRIPOS>ATOM
      1  O         22.8550   18.1080   20.3970 O.2     1  UNL1       -0.2732
      2  C         21.9970   17.3010   20.6870 C.2     1  UNL1        0.2416
      3  C         21.2950   16.5140   19.6080 C.3     1  UNL1        0.1204
      4  N         20.2170   17.1980   18.9760 N.ar    1  UNL1       -0.2351
      5  N         20.0650   18.5630   18.9970 N.ar    1  UNL1       -0.0641
      6  N         18.9290   18.7910   18.3920 N.ar    1  UNL1       -0.1295
      7  C         18.3450   17.6640   18.0270 C.ar    1  UNL1        0.1127
      8  C         17.1560   17.4310   17.4120 C.ar    1  UNL1       -0.0324
      9  C         16.8380   16.1710   17.0250 C.ar    1  UNL1       -0.0596
     10  C         17.7770   15.0750   17.2710 C.ar    1  UNL1       -0.0596
     11  C         18.9700   15.3410   17.8810 C.ar    1  UNL1       -0.0345
     12  C         19.1850   16.5990   18.3220 C.ar    1  UNL1        0.0895
     13  N         21.6500   17.1760   22.0220 N.am    1  UNL1       -0.2656
     14  C         20.5920   16.1880   22.4110 C.3     1  UNL1        0.0454
     15  C         19.2060   16.6340   22.0030 C.ar    1  UNL1       -0.0227
     16  C         18.2650   15.6350   21.5560 C.ar    1  UNL1       -0.0500
     17  C         17.0030   16.1700   21.4090 C.ar    1  UNL1       -0.0240
     18  S         16.9380   17.8720   21.9320 S.2     1  UNL1       -0.1047
     19  C         18.6350   17.8550   22.2790 C.ar    1  UNL1       -0.0196
     20  C         22.4080   17.8250   23.0230 C.ar    1  UNL1        0.0367
     21  C         22.3890   19.1920   23.1390 C.ar    1  UNL1       -0.0396
     22  C         23.1500   19.8950   24.1070 C.ar    1  UNL1       -0.0508
     23  C         23.9610   19.1390   24.9260 C.ar    1  UNL1        0.0005
     24  C         23.9950   17.7110   24.7860 C.ar    1  UNL1       -0.0508
     25  C         23.2080   17.1080   23.7860 C.ar    1  UNL1       -0.0396
     26  C         24.6780   19.6590   26.1100 C.ar    1  UNL1        0.0710
     27  C         24.7810   21.0390   26.4990 C.ar    1  UNL1       -0.0357
     28  C         25.6460   21.5170   27.5700 C.ar    1  UNL1       -0.0583
     29  C         26.4480   20.5740   28.1650 C.ar    1  UNL1       -0.0436
     30  C         26.2760   19.1980   27.7900 C.ar    1  UNL1        0.0283
     31  N         25.3600   18.7780   26.8730 N.ar    1  UNL1       -0.2550
     32  H         22.0110   16.2590   18.8180 H       1  UNL1        0.0606
     33  H         20.9330   15.5300   19.9310 H       1  UNL1        0.0606
     34  H         16.5290   18.3090   17.2880 H       1  UNL1        0.0640
     35  H         15.9070   16.0460   16.4820 H       1  UNL1        0.0618
     36  H         17.4780   14.0800   16.9570 H       1  UNL1        0.0618
     37  H         19.6510   14.5200   18.0860 H       1  UNL1        0.0639
     38  H         20.7580   15.1950   21.9750 H       1  UNL1        0.0518
     39  H         20.5790   16.0720   23.5020 H       1  UNL1        0.0518
     40  H         18.5060   14.5980   21.3550 H       1  UNL1        0.0626
     41  H         16.0660   15.7410   21.0820 H       1  UNL1        0.0693
     42  H         19.0720   18.7840   22.6180 H       1  UNL1        0.0696
     43  H         21.8250   19.7930   22.4330 H       1  UNL1        0.0636
     44  H         23.0000   20.9700   24.0930 H       1  UNL1        0.0625
     45  H         24.5680   17.0890   25.4660 H       1  UNL1        0.0625
     46  H         23.3340   16.0600   23.5310 H       1  UNL1        0.0636
     47  H         24.2940   21.7560   25.8450 H       1  UNL1        0.0639
     48  H         25.6780   22.5860   27.7620 H       1  UNL1        0.0619
     49  H         27.2250   20.7550   28.9020 H       1  UNL1        0.0633
     50  H         26.9060   18.4130   28.2040 H       1  UNL1        0.0830
@<TRIPOS>BOND
     1     1     2    2
     2     2    13   am
     3     2     3    1
     4     3    32    1
     5     3    33    1
     6     3     4    1
     7     4     5   ar
     8     4    12   ar
     9     5     6   ar
    10     6     7   ar
    11     7    12   ar
    12     7     8   ar
    13     8     9   ar
    14     8    34    1
    15     9    10   ar
    16     9    35    1
    17    10    11   ar
    18    10    36    1
    19    11    37    1
    20    11    12   ar
    21    13    20    1
    22    13    14    1
    23    14    38    1
    24    14    39    1
    25    14    15    1
    26    15    16   ar
    27    15    19   ar
    28    16    40    1
    29    16    17   ar
    30    17    18   ar
    31    17    41    1
    32    18    19   ar
    33    19    42    1
    34    20    25   ar
    35    20    21   ar
    36    21    22   ar
    37    21    43    1
    38    22    23   ar
    39    22    44    1
    40    23    26    1
    41    23    24   ar
    42    24    45    1
    43    24    25   ar
    44    25    46    1
    45    26    31   ar
    46    26    27   ar
    47    27    28   ar
    48    27    47    1
    49    28    29   ar
    50    28    48    1
    51    29    49    1
    52    29    30   ar
    53    30    50    1
    54    30    31   ar
