@<TRIPOS>MOLECULE
/home/lqcapf-6/arquivos_joao/4D/Alinhamento/alinhadas1/Mol18_PAC_aligned.pdb
 51 55 0 0 0
SMALL
GASTEIGER

@<TRIPOS>ATOM
      1  C         23.6800   19.1720   26.6310 C.3     1  UNL1        0.0302
      2  N         23.5830   18.4490   25.4240 N.ar    1  UNL1       -0.2739
      3  C         22.4220   18.2920   24.6970 C.ar    1  UNL1        0.0329
      4  C         22.9200   17.6720   23.5600 C.ar    1  UNL1        0.0196
      5  C         24.3350   17.5900   23.6130 C.ar    1  UNL1        0.0571
      6  N         24.6960   17.9390   24.8290 N.ar    1  UNL1       -0.1793
      7  C         22.1070   17.1360   22.4880 C.ar    1  UNL1       -0.0148
      8  C         20.7310   17.5360   22.3360 C.ar    1  UNL1       -0.0522
      9  C         19.9570   17.0190   21.2010 C.ar    1  UNL1       -0.0397
     10  C         20.5640   16.1040   20.3010 C.ar    1  UNL1        0.0367
     11  C         21.8240   15.6750   20.4900 C.ar    1  UNL1       -0.0397
     12  C         22.5310   16.0710   21.6720 C.ar    1  UNL1       -0.0522
     13  N         19.8540   15.7690   19.0690 N.am    1  UNL1       -0.2656
     14  C         20.2530   16.5810   17.8890 C.3     1  UNL1        0.0454
     15  C         19.9470   18.0550   17.9270 C.ar    1  UNL1       -0.0227
     16  C         18.8610   18.6130   17.2030 C.ar    1  UNL1       -0.0500
     17  C         18.7140   19.9600   17.3630 C.ar    1  UNL1       -0.0240
     18  S         20.0440   20.5870   18.4040 S.2     1  UNL1       -0.1047
     19  C         20.6910   18.9690   18.5830 C.ar    1  UNL1       -0.0196
     20  C         18.8640   14.8230   19.1160 C.2     1  UNL1        0.2416
     21  O         18.4990   14.2050   20.1670 O.2     1  UNL1       -0.2732
     22  C         18.0900   14.4850   17.8240 C.3     1  UNL1        0.1204
     23  N         16.9640   15.3640   17.4680 N.ar    1  UNL1       -0.2351
     24  N         16.7550   15.8270   16.1750 N.ar    1  UNL1       -0.0641
     25  N         15.8800   16.8010   16.1370 N.ar    1  UNL1       -0.1295
     26  C         15.5910   17.0910   17.4250 C.ar    1  UNL1        0.1127
     27  C         14.6660   18.0490   17.8100 C.ar    1  UNL1       -0.0324
     28  C         14.4830   18.1660   19.1840 C.ar    1  UNL1       -0.0596
     29  C         15.2870   17.4780   20.0740 C.ar    1  UNL1       -0.0596
     30  C         16.1270   16.4430   19.6560 C.ar    1  UNL1       -0.0345
     31  C         16.1790   16.1750   18.2930 C.ar    1  UNL1        0.0895
     32  H         24.4210   18.6500   27.2500 H       1  UNL1        0.0473
     33  H         24.2470   20.0770   26.3840 H       1  UNL1        0.0473
     34  H         22.6900   19.4080   27.0420 H       1  UNL1        0.0473
     35  H         21.4770   18.5960   25.1260 H       1  UNL1        0.0832
     36  H         24.9910   17.1130   22.8960 H       1  UNL1        0.0854
     37  H         20.2140   18.2540   22.9650 H       1  UNL1        0.0624
     38  H         18.9380   17.3540   21.0250 H       1  UNL1        0.0636
     39  H         22.2920   15.0410   19.7420 H       1  UNL1        0.0636
     40  H         23.5620   15.7440   21.7690 H       1  UNL1        0.0624
     41  H         21.3420   16.5250   17.7710 H       1  UNL1        0.0518
     42  H         19.8810   16.2060   16.9270 H       1  UNL1        0.0518
     43  H         18.2250   18.0100   16.5650 H       1  UNL1        0.0626
     44  H         18.0200   20.6380   16.8850 H       1  UNL1        0.0693
     45  H         21.5670   18.8250   19.2030 H       1  UNL1        0.0696
     46  H         18.7820   14.3680   16.9810 H       1  UNL1        0.0606
     47  H         17.5610   13.5370   17.9820 H       1  UNL1        0.0606
     48  H         14.1710   18.6970   17.0930 H       1  UNL1        0.0640
     49  H         13.7540   18.8850   19.5470 H       1  UNL1        0.0618
     50  H         15.1660   17.6220   21.1440 H       1  UNL1        0.0618
     51  H         16.7220   15.8410   20.3370 H       1  UNL1        0.0639
@<TRIPOS>BOND
     1     1    33    1
     2     1    32    1
     3     1    34    1
     4     1     2    1
     5     2     6   ar
     6     2     3   ar
     7     3    35    1
     8     3     4   ar
     9     4     5   ar
    10     4     7    1
    11     5     6   ar
    12     5    36    1
    13     7     8   ar
    14     7    12   ar
    15     8    37    1
    16     8     9   ar
    17     9    38    1
    18     9    10   ar
    19    10    11   ar
    20    10    13    1
    21    11    12   ar
    22    11    39    1
    23    12    40    1
    24    13    14    1
    25    13    20   am
    26    14    15    1
    27    14    41    1
    28    14    42    1
    29    15    19   ar
    30    15    16   ar
    31    16    17   ar
    32    16    43    1
    33    17    18   ar
    34    17    44    1
    35    18    19   ar
    36    19    45    1
    37    20    21    2
    38    20    22    1
    39    22    23    1
    40    22    46    1
    41    22    47    1
    42    23    31   ar
    43    23    24   ar
    44    24    25   ar
    45    25    26   ar
    46    26    27   ar
    47    26    31   ar
    48    27    28   ar
    49    27    48    1
    50    28    49    1
    51    28    29   ar
    52    29    50    1
    53    29    30   ar
    54    30    51    1
    55    30    31   ar
