@<TRIPOS>MOLECULE
/home/lqcapf-6/arquivos_joao/4D/Alinhamento/alinhadas1/Mol13_PAC_aligned.pdb
 53 57 0 0 0
SMALL
GASTEIGER

@<TRIPOS>ATOM
      1  O         20.3900   22.4860   18.0230 O.2     1  UNL1       -0.2732
      2  C         20.5180   22.6220   19.2310 C.2     1  UNL1        0.2416
      3  C         21.0890   23.9860   19.8650 C.3     1  UNL1        0.1204
      4  N         21.4120   24.8950   18.8270 N.ar    1  UNL1       -0.2351
      5  N         20.6390   26.0530   18.7090 N.ar    1  UNL1       -0.0641
      6  N         21.3750   26.8860   17.9390 N.ar    1  UNL1       -0.1295
      7  C         22.5190   26.2190   17.5620 C.ar    1  UNL1        0.1127
      8  C         23.6200   26.7640   16.8610 C.ar    1  UNL1       -0.0324
      9  C         24.6820   25.9140   16.6110 C.ar    1  UNL1       -0.0596
     10  C         24.7620   24.6180   17.1700 C.ar    1  UNL1       -0.0596
     11  C         23.6630   24.1360   17.9620 C.ar    1  UNL1       -0.0345
     12  C         22.5820   24.9860   18.1480 C.ar    1  UNL1        0.0895
     13  N         20.1290   21.6080   20.1310 N.am    1  UNL1       -0.2656
     14  C         20.5320   21.5810   21.5200 C.3     1  UNL1        0.0454
     15  C         21.9640   21.2420   21.7900 C.ar    1  UNL1       -0.0227
     16  C         22.4010   20.6040   23.0320 C.ar    1  UNL1       -0.0500
     17  C         23.7130   20.4230   23.1730 C.ar    1  UNL1       -0.0240
     18  S         24.5250   20.8030   21.6790 S.2     1  UNL1       -0.1047
     19  C         23.0580   21.4090   21.0240 C.ar    1  UNL1       -0.0196
     20  C         19.5790   20.4480   19.5780 C.ar    1  UNL1        0.0368
     21  C         18.2220   20.4440   19.2140 C.ar    1  UNL1       -0.0385
     22  C         17.7230   19.3970   18.4240 C.ar    1  UNL1       -0.0376
     23  C         18.4810   18.2030   18.3010 C.ar    1  UNL1        0.0478
     24  C         19.7860   18.2020   18.7240 C.ar    1  UNL1       -0.0376
     25  C         20.3660   19.2710   19.3800 C.ar    1  UNL1       -0.0385
     26  N         17.9160   17.2040   17.5360 N.pl3   1  UNL1       -0.2204
     27  S         18.3020   15.5300   17.5690 S.O2    1  UNL1        0.0460
     28  O         19.5810   15.3640   16.8840 O.2     1  UNL1       -0.1549
     29  O         18.2500   15.0750   18.9440 O.2     1  UNL1       -0.1549
     30  C         17.0790   14.5860   16.5420 C.3     1  UNL1        0.0959
     31  C         16.3220   15.2890   15.4600 C.3     1  UNL1       -0.0272
     32  C         15.5560   14.8530   16.6750 C.3     1  UNL1       -0.0272
     33  H         20.3420   24.4130   20.5440 H       1  UNL1        0.0606
     34  H         22.0120   23.8430   20.4390 H       1  UNL1        0.0606
     35  H         23.5710   27.8000   16.5380 H       1  UNL1        0.0640
     36  H         25.5130   26.3000   16.0270 H       1  UNL1        0.0618
     37  H         25.6620   24.0120   17.1170 H       1  UNL1        0.0618
     38  H         23.6040   23.1920   18.4970 H       1  UNL1        0.0639
     39  H         20.3310   22.5440   22.0060 H       1  UNL1        0.0518
     40  H         19.9910   20.7360   21.9660 H       1  UNL1        0.0518
     41  H         21.6940   20.4310   23.8340 H       1  UNL1        0.0626
     42  H         24.2650   20.1550   24.0640 H       1  UNL1        0.0693
     43  H         23.1530   21.8340   20.0340 H       1  UNL1        0.0696
     44  H         17.6720   21.3770   19.2910 H       1  UNL1        0.0637
     45  H         16.7950   19.6250   17.9070 H       1  UNL1        0.0637
     46  H         20.3710   17.3310   18.4430 H       1  UNL1        0.0637
     47  H         21.4380   19.2560   19.5530 H       1  UNL1        0.0637
     48  H         16.9400   17.3720   17.3290 H       1  UNL1        0.1733
     49  H         17.3960   13.5900   16.2390 H       1  UNL1        0.0554
     50  H         16.5440   16.3510   15.3830 H       1  UNL1        0.0285
     51  H         16.0110   14.8380   14.5210 H       1  UNL1        0.0285
     52  H         14.8620   14.0350   16.4980 H       1  UNL1        0.0285
     53  H         15.3160   15.6340   17.3910 H       1  UNL1        0.0285
@<TRIPOS>BOND
     1     1     2    2
     2     2    13   am
     3     2     3    1
     4     3     4    1
     5     3    33    1
     6     3    34    1
     7     4     5   ar
     8     4    12   ar
     9     5     6   ar
    10     6     7   ar
    11     7    12   ar
    12     7     8   ar
    13     8     9   ar
    14     8    35    1
    15     9    10   ar
    16     9    36    1
    17    10    11   ar
    18    10    37    1
    19    11    38    1
    20    11    12   ar
    21    13    20    1
    22    13    14    1
    23    14    40    1
    24    14    39    1
    25    14    15    1
    26    15    19   ar
    27    15    16   ar
    28    16    41    1
    29    16    17   ar
    30    17    18   ar
    31    17    42    1
    32    18    19   ar
    33    19    43    1
    34    20    21   ar
    35    20    25   ar
    36    21    22   ar
    37    21    44    1
    38    22    45    1
    39    22    23   ar
    40    23    26    1
    41    23    24   ar
    42    24    46    1
    43    24    25   ar
    44    25    47    1
    45    26    27    1
    46    26    48    1
    47    27    30    1
    48    27    28    2
    49    27    29    2
    50    30    31    1
    51    30    32    1
    52    30    49    1
    53    31    51    1
    54    31    32    1
    55    31    50    1
    56    32    52    1
    57    32    53    1
