@<TRIPOS>MOLECULE
/home/lqcapf-6/arquivos_joao/4D/Alinhamento/alinhadas1/Mol19_PAC_aligned.pdb
 48 52 0 0 0
SMALL
GASTEIGER

@<TRIPOS>ATOM
      1  O         20.8750   17.1190   21.6170 O.2     1  UNL1       -0.2732
      2  C         21.5630   16.3580   20.9830 C.2     1  UNL1        0.2416
      3  C         21.4760   16.4750   19.4470 C.3     1  UNL1        0.1204
      4  N         20.3220   17.1940   18.8450 N.ar    1  UNL1       -0.2351
      5  N         20.1040   18.5580   18.9020 N.ar    1  UNL1       -0.0641
      6  N         18.8800   18.7990   18.5330 N.ar    1  UNL1       -0.1295
      7  C         18.3190   17.6150   18.0670 C.ar    1  UNL1        0.1127
      8  C         17.1030   17.3980   17.4440 C.ar    1  UNL1       -0.0324
      9  C         16.8140   16.1470   17.0050 C.ar    1  UNL1       -0.0596
     10  C         17.7740   15.1130   17.2860 C.ar    1  UNL1       -0.0596
     11  C         18.9740   15.3740   17.9100 C.ar    1  UNL1       -0.0345
     12  C         19.1930   16.6340   18.3120 C.ar    1  UNL1        0.0895
     13  N         22.3000   15.3140   21.6020 N.am    1  UNL1       -0.2656
     14  C         23.1540   14.3940   20.8900 C.3     1  UNL1        0.0454
     15  C         22.6460   13.0200   20.5860 C.ar    1  UNL1       -0.0227
     16  C         21.3180   12.8110   20.1720 C.ar    1  UNL1       -0.0500
     17  C         20.9150   11.5050   19.8550 C.ar    1  UNL1       -0.0240
     18  S         22.3360   10.5410   20.0850 S.2     1  UNL1       -0.1047
     19  C         23.3480   11.8680   20.5640 C.ar    1  UNL1       -0.0196
     20  C         22.3240   15.0490   23.0400 C.ar    1  UNL1        0.0367
     21  C         21.2890   14.2800   23.5940 C.ar    1  UNL1       -0.0397
     22  C         21.3460   13.9200   24.9230 C.ar    1  UNL1       -0.0522
     23  C         22.2410   14.5310   25.8000 C.ar    1  UNL1       -0.0148
     24  C         23.1760   15.4710   25.2790 C.ar    1  UNL1       -0.0522
     25  C         23.2140   15.7020   23.8830 C.ar    1  UNL1       -0.0397
     26  C         22.2530   14.2530   27.2560 C.ar    1  UNL1        0.0193
     27  C         21.4780   13.2370   27.7530 C.ar    1  UNL1        0.0300
     28  N         21.8450   13.3850   29.0820 N.ar    1  UNL1       -0.2841
     29  N         22.8960   14.2770   29.3740 N.ar    1  UNL1       -0.1817
     30  C         23.1060   14.8560   28.1940 C.ar    1  UNL1        0.0568
     31  H         22.4300   16.9260   19.1490 H       1  UNL1        0.0606
     32  H         21.4070   15.4600   19.0350 H       1  UNL1        0.0606
     33  H         16.4330   18.2480   17.3610 H       1  UNL1        0.0640
     34  H         15.8030   16.0570   16.6200 H       1  UNL1        0.0618
     35  H         17.5020   14.0960   17.0190 H       1  UNL1        0.0618
     36  H         19.6080   14.5290   18.1690 H       1  UNL1        0.0639
     37  H         23.4030   14.8660   19.9320 H       1  UNL1        0.0518
     38  H         24.1290   14.2770   21.3800 H       1  UNL1        0.0518
     39  H         20.5790   13.6040   20.1320 H       1  UNL1        0.0626
     40  H         19.9170   11.1290   19.6800 H       1  UNL1        0.0693
     41  H         24.4000   11.7330   20.7770 H       1  UNL1        0.0696
     42  H         20.4740   13.8930   22.9910 H       1  UNL1        0.0636
     43  H         20.5930   13.2820   25.3740 H       1  UNL1        0.0624
     44  H         23.9360   15.8330   25.9660 H       1  UNL1        0.0624
     45  H         23.9200   16.4110   23.4610 H       1  UNL1        0.0636
     46  H         20.6430   12.6400   27.4080 H       1  UNL1        0.0830
     47  H         23.8030   15.6790   28.1130 H       1  UNL1        0.0854
     48  H         21.4890   12.9230   29.9070 H       1  UNL1        0.1882
@<TRIPOS>BOND
     1     1     2    2
     2     2    13   am
     3     2     3    1
     4     3     4    1
     5     3    32    1
     6     3    31    1
     7     4    12   ar
     8     4     5   ar
     9     5     6   ar
    10     6     7   ar
    11     7     8   ar
    12     7    12   ar
    13     8    33    1
    14     8     9   ar
    15     9    34    1
    16     9    10   ar
    17    10    35    1
    18    10    11   ar
    19    11    12   ar
    20    11    36    1
    21    13    20    1
    22    13    14    1
    23    14    15    1
    24    14    38    1
    25    14    37    1
    26    15    16   ar
    27    15    19   ar
    28    16    39    1
    29    16    17   ar
    30    17    40    1
    31    17    18   ar
    32    18    19   ar
    33    19    41    1
    34    20    21   ar
    35    20    25   ar
    36    21    22   ar
    37    21    42    1
    38    22    43    1
    39    22    23   ar
    40    23    26    1
    41    23    24   ar
    42    24    44    1
    43    24    25   ar
    44    25    45    1
    45    26    27   ar
    46    26    30   ar
    47    27    28   ar
    48    27    46    1
    49    28    48    1
    50    28    29   ar
    51    29    30   ar
    52    30    47    1
