@<TRIPOS>MOLECULE
/home/lqcapf-6/arquivos_joao/4D/Alinhamento/alinhadas1/Mol12_PAC_aligned.pdb
 49 52 0 0 0
SMALL
GASTEIGER

@<TRIPOS>ATOM
      1  C         20.6330   20.6440   20.8600 C.3     1  UNL1        0.0736
      2  S         20.0830   20.0930   19.1880 S.O2    1  UNL1        0.0403
      3  O         21.1300   19.9300   18.1460 O.2     1  UNL1       -0.1555
      4  O         18.9090   20.9640   18.9290 O.2     1  UNL1       -0.1555
      5  N         19.5340   18.4760   19.5860 N.pl3   1  UNL1       -0.2209
      6  C         19.1700   17.4930   18.7110 C.ar    1  UNL1        0.0478
      7  C         18.6690   17.8310   17.4450 C.ar    1  UNL1       -0.0376
      8  C         18.1550   16.7910   16.6480 C.ar    1  UNL1       -0.0385
      9  C         18.0050   15.5050   17.1280 C.ar    1  UNL1        0.0368
     10  C         18.5450   15.1150   18.4030 C.ar    1  UNL1       -0.0385
     11  C         19.1850   16.1500   19.0570 C.ar    1  UNL1       -0.0376
     12  N         17.3110   14.5100   16.3950 N.am    1  UNL1       -0.2656
     13  C         17.9650   14.0010   15.2170 C.3     1  UNL1        0.0454
     14  C         18.2360   12.5020   15.2660 C.ar    1  UNL1       -0.0227
     15  C         17.7990   11.5930   14.2860 C.ar    1  UNL1       -0.0500
     16  C         18.3180   10.2830   14.4540 C.ar    1  UNL1       -0.0240
     17  S         19.2890   10.2600   15.8970 S.2     1  UNL1       -0.1047
     18  C         18.9510   11.8990   16.2530 C.ar    1  UNL1       -0.0196
     19  C         15.9590   14.2150   16.5930 C.2     1  UNL1        0.2416
     20  O         15.3290   14.8990   17.4070 O.2     1  UNL1       -0.2732
     21  C         15.2260   13.1950   15.7330 C.3     1  UNL1        0.1204
     22  N         13.7600   13.2930   15.8750 N.ar    1  UNL1       -0.2351
     23  N         13.0470   14.2430   15.1520 N.ar    1  UNL1       -0.0641
     24  N         11.7580   13.9250   15.3350 N.ar    1  UNL1       -0.1295
     25  C         11.6790   12.9030   16.2420 C.ar    1  UNL1        0.1127
     26  C         10.5600   12.3390   16.8070 C.ar    1  UNL1       -0.0324
     27  C         10.7290   11.2020   17.6230 C.ar    1  UNL1       -0.0596
     28  C         12.0300   10.7450   17.9050 C.ar    1  UNL1       -0.0596
     29  C         13.1550   11.4370   17.4940 C.ar    1  UNL1       -0.0345
     30  C         12.9180   12.5140   16.6440 C.ar    1  UNL1        0.0895
     31  H         21.0870   21.6430   20.8680 H       1  UNL1        0.0482
     32  H         19.7520   20.5500   21.5050 H       1  UNL1        0.0482
     33  H         21.4570   19.9810   21.1510 H       1  UNL1        0.0482
     34  H         20.0000   18.0800   20.3930 H       1  UNL1        0.1733
     35  H         18.6320   18.8430   17.0530 H       1  UNL1        0.0637
     36  H         17.9300   17.0400   15.6150 H       1  UNL1        0.0637
     37  H         18.5570   14.1170   18.8330 H       1  UNL1        0.0637
     38  H         19.6480   15.8540   19.9940 H       1  UNL1        0.0637
     39  H         17.3780   14.2310   14.3190 H       1  UNL1        0.0518
     40  H         18.8510   14.6000   14.9770 H       1  UNL1        0.0518
     41  H         17.1630   11.8470   13.4450 H       1  UNL1        0.0626
     42  H         18.0840    9.3720   13.9210 H       1  UNL1        0.0693
     43  H         19.5650   12.3100   17.0440 H       1  UNL1        0.0696
     44  H         15.5960   13.2670   14.7030 H       1  UNL1        0.0606
     45  H         15.6320   12.2110   16.0040 H       1  UNL1        0.0606
     46  H          9.5580   12.7320   16.6600 H       1  UNL1        0.0640
     47  H          9.9690   10.6250   18.1420 H       1  UNL1        0.0618
     48  H         12.0590    9.8980   18.5840 H       1  UNL1        0.0618
     49  H         14.1800   11.1410   17.6910 H       1  UNL1        0.0639
@<TRIPOS>BOND
     1     1    31    1
     2     1    32    1
     3     1     2    1
     4     1    33    1
     5     2     4    2
     6     2     3    2
     7     2     5    1
     8     5     6    1
     9     5    34    1
    10     6     7   ar
    11     6    11   ar
    12     7    35    1
    13     7     8   ar
    14     8    36    1
    15     8     9   ar
    16     9    12    1
    17     9    10   ar
    18    10    11   ar
    19    10    37    1
    20    11    38    1
    21    12    19   am
    22    12    13    1
    23    13    39    1
    24    13    40    1
    25    13    14    1
    26    14    15   ar
    27    14    18   ar
    28    15    41    1
    29    15    16   ar
    30    16    17   ar
    31    16    42    1
    32    17    18   ar
    33    18    43    1
    34    19    20    2
    35    19    21    1
    36    21    22    1
    37    21    44    1
    38    21    45    1
    39    22    23   ar
    40    22    30   ar
    41    23    24   ar
    42    24    25   ar
    43    25    26   ar
    44    25    30   ar
    45    26    46    1
    46    26    27   ar
    47    27    47    1
    48    27    28   ar
    49    28    29   ar
    50    28    48    1
    51    29    30   ar
    52    29    49    1
