@<TRIPOS>MOLECULE
/home/lqcapf-6/arquivos_joao/4D/Alinhamento/alinhadas1/Mol24_PAC_aligned.pdb
 53 57 0 0 0
SMALL
GASTEIGER

@<TRIPOS>ATOM
      1  O         21.0110   14.7970   20.6850 O.2     1  UNL1       -0.2735
      2  C         21.4290   15.9700   20.7540 C.2     1  UNL1        0.2387
      3  C         21.4840   16.5870   19.3850 C.3     1  UNL1        0.1081
      4  N         20.2130   17.1880   19.0430 N.pl3   1  UNL1       -0.2199
      5  N         20.1380   18.5890   18.9380 N.3     1  UNL1       -0.0148
      6  N         18.9240   18.8160   18.4220 N.pl3   1  UNL1       -0.1285
      7  C         18.3870   17.6680   18.0520 C.ar    1  UNL1        0.0926
      8  C         17.1080   17.4340   17.4300 C.ar    1  UNL1       -0.0356
      9  C         16.8190   16.1010   16.9650 C.ar    1  UNL1       -0.0598
     10  C         17.7300   15.0480   17.2040 C.ar    1  UNL1       -0.0599
     11  C         18.9660   15.3350   17.9400 C.ar    1  UNL1       -0.0374
     12  C         19.1970   16.6530   18.3090 C.ar    1  UNL1        0.0723
     13  N         21.5920   16.6770   21.9370 N.am    1  UNL1       -0.2698
     14  C         21.9180   18.1160   21.9050 C.3     1  UNL1        0.0227
     15  C         23.4970   18.0410   21.7540 C.3     1  UNL1       -0.0248
     16  C         24.3130   19.4240   21.8070 C.3     1  UNL1       -0.0488
     17  C         25.4120   18.5700   22.4880 C.3     1  UNL1       -0.0525
     18  C         24.2430   17.7160   23.0630 C.3     1  UNL1       -0.0488
     19  C         21.4300   16.0630   23.1780 C.ar    1  UNL1        0.0363
     20  C         22.3310   15.1330   23.6100 C.ar    1  UNL1       -0.0397
     21  C         22.1030   14.6010   24.9440 C.ar    1  UNL1       -0.0522
     22  C         20.9990   14.8320   25.7740 C.ar    1  UNL1       -0.0163
     23  C         20.1320   15.8930   25.2980 C.ar    1  UNL1       -0.0522
     24  C         20.3900   16.5320   24.0250 C.ar    1  UNL1       -0.0397
     25  C         20.7300   14.0080   26.9720 C.ar    1  UNL1        0.0002
     26  C         19.8490   14.4150   27.9910 C.ar    1  UNL1       -0.0512
     27  C         19.6250   13.6400   29.0940 C.ar    1  UNL1       -0.0430
     28  C         20.3750   12.5290   29.2680 C.ar    1  UNL1        0.0276
     29  N         21.2880   12.1060   28.3890 N.ar    1  UNL1       -0.2627
     30  C         21.4690   12.7800   27.2390 C.ar    1  UNL1        0.0352
     31  H         22.2930   17.3170   19.2620 H       1  UNL1        0.0576
     32  H         21.6360   15.9040   18.5400 H       1  UNL1        0.0576
     33  H         16.3890   18.2470   17.3840 H       1  UNL1        0.0638
     34  H         15.8470   15.8840   16.5320 H       1  UNL1        0.0618
     35  H         17.5760   13.9880   17.0200 H       1  UNL1        0.0618
     36  H         19.6080   14.5400   18.3080 H       1  UNL1        0.0637
     37  H         21.3770   18.6620   21.1230 H       1  UNL1        0.0471
     38  H         21.6650   18.6220   22.8450 H       1  UNL1        0.0471
     39  H         23.7530   17.5300   20.8200 H       1  UNL1        0.0316
     40  H         24.5790   19.8040   20.8150 H       1  UNL1        0.0268
     41  H         23.7770   20.1300   22.4500 H       1  UNL1        0.0268
     42  H         26.1850   17.9970   21.9650 H       1  UNL1        0.0265
     43  H         25.9370   19.1200   23.2770 H       1  UNL1        0.0265
     44  H         23.8950   18.1030   24.0260 H       1  UNL1        0.0268
     45  H         24.4490   16.6460   23.1640 H       1  UNL1        0.0268
     46  H         23.2450   14.9310   23.0600 H       1  UNL1        0.0636
     47  H         22.8560   13.8800   25.2470 H       1  UNL1        0.0624
     48  H         19.2940   16.2460   25.8920 H       1  UNL1        0.0624
     49  H         19.6800   17.2820   23.6910 H       1  UNL1        0.0636
     50  H         19.3160   15.3610   27.9670 H       1  UNL1        0.0625
     51  H         18.9050   13.8650   29.8760 H       1  UNL1        0.0633
     52  H         20.2580   11.9270   30.1680 H       1  UNL1        0.0829
     53  H         22.1620   12.2910   26.5550 H       1  UNL1        0.0836
@<TRIPOS>BOND
     1     1     2    2
     2     2    13   am
     3     2     3    1
     4     3     4    1
     5     3    32    1
     6     3    31    1
     7     4    12    1
     8     4     5    1
     9     5     6    1
    10     6     7    1
    11     7     8   ar
    12     7    12   ar
    13     8    33    1
    14     8     9   ar
    15     9    34    1
    16     9    10   ar
    17    10    35    1
    18    10    11   ar
    19    11    12   ar
    20    11    36    1
    21    13    19    1
    22    13    14    1
    23    14    38    1
    24    14    37    1
    25    14    15    1
    26    15    18    1
    27    15    16    1
    28    15    39    1
    29    16    41    1
    30    16    17    1
    31    16    40    1
    32    17    18    1
    33    17    43    1
    34    17    42    1
    35    18    44    1
    36    18    45    1
    37    19    24   ar
    38    19    20   ar
    39    20    21   ar
    40    20    46    1
    41    21    22   ar
    42    21    47    1
    43    22    25    1
    44    22    23   ar
    45    23    48    1
    46    23    24   ar
    47    24    49    1
    48    25    26   ar
    49    25    30   ar
    50    26    27   ar
    51    26    50    1
    52    27    51    1
    53    27    28   ar
    54    28    52    1
    55    28    29   ar
    56    29    30   ar
    57    30    53    1
