@<TRIPOS>MOLECULE
/home/lqcapf-6/arquivos_joao/4D/Alinhamento/alinhadas1/Mol20_PAC_aligned.pdb
 51 55 0 0 0
SMALL
GASTEIGER

@<TRIPOS>ATOM
      1  C         31.0500   21.4590   15.0040 C.3     1  UNL1        0.0127
      2  N         29.6900   21.4580   15.7150 N.ar    1  UNL1       -0.3393
      3  C         28.9890   22.5430   16.2030 C.ar    1  UNL1        0.0964
      4  N         27.7450   22.1370   16.5250 N.ar    1  UNL1       -0.2358
      5  C         27.7470   20.8000   16.2700 C.ar    1  UNL1        0.0887
      6  C         28.8790   20.3600   15.7590 C.ar    1  UNL1        0.0316
      7  C         26.5710   19.9670   16.5380 C.ar    1  UNL1        0.0019
      8  C         25.4740   20.5220   17.1840 C.ar    1  UNL1       -0.0508
      9  C         24.2980   19.7810   17.4590 C.ar    1  UNL1       -0.0396
     10  C         24.2470   18.4400   17.0980 C.ar    1  UNL1        0.0367
     11  C         25.3620   17.8060   16.5240 C.ar    1  UNL1       -0.0396
     12  C         26.5130   18.5540   16.2320 C.ar    1  UNL1       -0.0508
     13  N         23.0900   17.6950   17.4140 N.am    1  UNL1       -0.2656
     14  C         22.3080   17.1710   16.2750 C.3     1  UNL1        0.0454
     15  C         21.4390   18.1910   15.6390 C.ar    1  UNL1       -0.0227
     16  C         20.2080   17.7020   15.1850 C.ar    1  UNL1       -0.0500
     17  C         19.4400   18.6600   14.5250 C.ar    1  UNL1       -0.0240
     18  S         20.2470   20.2110   14.4850 S.2     1  UNL1       -0.1047
     19  C         21.6380   19.5140   15.3330 C.ar    1  UNL1       -0.0196
     20  C         22.8100   17.4640   18.7660 C.2     1  UNL1        0.2416
     21  O         23.4810   17.9050   19.6050 O.2     1  UNL1       -0.2732
     22  C         21.5870   16.6050   19.2120 C.3     1  UNL1        0.1204
     23  N         20.2950   17.2170   18.8350 N.ar    1  UNL1       -0.2351
     24  N         20.0330   18.5610   19.0600 N.ar    1  UNL1       -0.0641
     25  N         18.9230   18.8180   18.4760 N.ar    1  UNL1       -0.1295
     26  C         18.4280   17.6800   17.9650 C.ar    1  UNL1        0.1127
     27  C         17.1660   17.4530   17.3630 C.ar    1  UNL1       -0.0324
     28  C         16.7920   16.0880   17.0440 C.ar    1  UNL1       -0.0596
     29  C         17.6990   15.0490   17.3670 C.ar    1  UNL1       -0.0596
     30  C         18.9260   15.3070   17.9830 C.ar    1  UNL1       -0.0345
     31  C         19.2200   16.6600   18.2100 C.ar    1  UNL1        0.0895
     32  H         31.8390   21.1930   15.7180 H       1  UNL1        0.0456
     33  H         31.0710   20.8290   14.1060 H       1  UNL1        0.0456
     34  H         31.2930   22.4670   14.6460 H       1  UNL1        0.0456
     35  H         29.4270   23.5320   16.1540 H       1  UNL1        0.1029
     36  H         29.3110   19.3880   15.5690 H       1  UNL1        0.0831
     37  H         25.5430   21.5320   17.5750 H       1  UNL1        0.0625
     38  H         23.4680   20.2770   17.9560 H       1  UNL1        0.0636
     39  H         25.3630   16.7260   16.4120 H       1  UNL1        0.0636
     40  H         27.3700   18.0560   15.7900 H       1  UNL1        0.0625
     41  H         23.0760   16.7820   15.5960 H       1  UNL1        0.0518
     42  H         21.7760   16.3000   16.6800 H       1  UNL1        0.0518
     43  H         19.8740   16.6950   15.4030 H       1  UNL1        0.0626
     44  H         18.5050   18.6240   13.9820 H       1  UNL1        0.0693
     45  H         22.5000   20.1530   15.4710 H       1  UNL1        0.0696
     46  H         21.6860   15.5480   18.9330 H       1  UNL1        0.0606
     47  H         21.5230   16.6820   20.3040 H       1  UNL1        0.0606
     48  H         16.4730   18.2820   17.2510 H       1  UNL1        0.0640
     49  H         15.7890   15.9280   16.6610 H       1  UNL1        0.0618
     50  H         17.3320   14.0490   17.1570 H       1  UNL1        0.0618
     51  H         19.4840   14.4920   18.4370 H       1  UNL1        0.0639
@<TRIPOS>BOND
     1     1    33    1
     2     1     2    1
     3     1    32    1
     4     1    34    1
     5     2     6   ar
     6     2     3   ar
     7     3     4   ar
     8     3    35    1
     9     4     5   ar
    10     5     7    1
    11     5     6   ar
    12     6    36    1
    13     7    12   ar
    14     7     8   ar
    15     8     9   ar
    16     8    37    1
    17     9    10   ar
    18     9    38    1
    19    10    13    1
    20    10    11   ar
    21    11    39    1
    22    11    12   ar
    23    12    40    1
    24    13    14    1
    25    13    20   am
    26    14    42    1
    27    14    15    1
    28    14    41    1
    29    15    16   ar
    30    15    19   ar
    31    16    43    1
    32    16    17   ar
    33    17    44    1
    34    17    18   ar
    35    18    19   ar
    36    19    45    1
    37    20    22    1
    38    20    21    2
    39    22    46    1
    40    22    23    1
    41    22    47    1
    42    23    31   ar
    43    23    24   ar
    44    24    25   ar
    45    25    26   ar
    46    26    27   ar
    47    26    31   ar
    48    27    28   ar
    49    27    48    1
    50    28    49    1
    51    28    29   ar
    52    29    50    1
    53    29    30   ar
    54    30    51    1
    55    30    31   ar
