@<TRIPOS>MOLECULE
/home/lqcapf-6/arquivos_joao/4D/Alinhamento/alinhadas1/Mol23_PAC_aligned.pdb
 50 54 0 0 0
SMALL
GASTEIGER

@<TRIPOS>ATOM
      1  O         22.4540   17.5290   21.4080 O.2     1  UNL1       -0.2732
      2  C         21.8380   16.5570   20.8920 C.2     1  UNL1        0.2413
      3  C         21.5340   16.5710   19.3540 C.3     1  UNL1        0.1204
      4  N         20.2900   17.1850   18.8990 N.ar    1  UNL1       -0.2351
      5  N         20.1180   18.5370   18.9470 N.ar    1  UNL1       -0.0641
      6  N         18.8880   18.8260   18.4750 N.ar    1  UNL1       -0.1295
      7  C         18.3860   17.6910   18.0370 C.ar    1  UNL1        0.1127
      8  C         17.0880   17.4160   17.4910 C.ar    1  UNL1       -0.0324
      9  C         16.7980   16.1270   16.9790 C.ar    1  UNL1       -0.0596
     10  C         17.6870   15.1040   17.2560 C.ar    1  UNL1       -0.0596
     11  C         18.9410   15.3160   17.9560 C.ar    1  UNL1       -0.0345
     12  C         19.2870   16.6310   18.2640 C.ar    1  UNL1        0.0895
     13  N         21.3770   15.4820   21.7200 N.am    1  UNL1       -0.2696
     14  C         20.2180   14.7040   21.4390 C.3     1  UNL1        0.0227
     15  C         18.9320   15.4770   21.6910 C.3     1  UNL1       -0.0248
     16  C         17.7020   14.6900   21.4310 C.3     1  UNL1       -0.0485
     17  C         17.9220   15.3030   22.7700 C.3     1  UNL1       -0.0485
     18  C         22.0540   15.1910   22.9400 C.ar    1  UNL1        0.0364
     19  C         21.5350   15.3970   24.2170 C.ar    1  UNL1       -0.0397
     20  C         22.2440   15.1120   25.3650 C.ar    1  UNL1       -0.0522
     21  C         23.5560   14.6780   25.3310 C.ar    1  UNL1       -0.0163
     22  C         23.9950   14.2550   24.0450 C.ar    1  UNL1       -0.0522
     23  C         23.3160   14.5930   22.8780 C.ar    1  UNL1       -0.0397
     24  C         24.3910   14.3650   26.5750 C.ar    1  UNL1        0.0002
     25  C         23.7740   13.9960   27.8470 C.ar    1  UNL1       -0.0512
     26  C         24.5530   13.6530   28.9500 C.ar    1  UNL1       -0.0430
     27  C         25.9890   13.6130   28.8480 C.ar    1  UNL1        0.0276
     28  N         26.5290   14.1130   27.7480 N.ar    1  UNL1       -0.2627
     29  C         25.7550   14.4180   26.6310 C.ar    1  UNL1        0.0352
     30  H         22.4020   16.9890   18.8310 H       1  UNL1        0.0606
     31  H         21.6300   15.5530   18.9580 H       1  UNL1        0.0606
     32  H         16.4280   18.2470   17.2560 H       1  UNL1        0.0640
     33  H         15.8520   15.9050   16.4940 H       1  UNL1        0.0618
     34  H         17.2930   14.1550   16.9050 H       1  UNL1        0.0618
     35  H         19.5500   14.4550   18.2160 H       1  UNL1        0.0639
     36  H         20.1770   14.2500   20.4410 H       1  UNL1        0.0471
     37  H         20.3190   13.8800   22.1570 H       1  UNL1        0.0471
     38  H         18.9390   16.5050   21.3390 H       1  UNL1        0.0316
     39  H         16.8650   15.2040   20.9680 H       1  UNL1        0.0269
     40  H         17.7670   13.6060   21.3830 H       1  UNL1        0.0269
     41  H         18.1860   14.5330   23.4890 H       1  UNL1        0.0269
     42  H         17.1220   15.9930   23.0290 H       1  UNL1        0.0269
     43  H         20.5120   15.7610   24.2460 H       1  UNL1        0.0636
     44  H         21.9030   15.3490   26.3690 H       1  UNL1        0.0624
     45  H         24.9710   13.7930   23.9300 H       1  UNL1        0.0624
     46  H         23.8010   14.2840   21.9560 H       1  UNL1        0.0636
     47  H         22.6890   14.0270   27.8930 H       1  UNL1        0.0625
     48  H         24.1480   13.3270   29.9040 H       1  UNL1        0.0633
     49  H         26.6540   13.2320   29.6220 H       1  UNL1        0.0829
     50  H         26.3100   14.8440   25.7970 H       1  UNL1        0.0836
@<TRIPOS>BOND
     1     1     2    2
     2     2     3    1
     3     2    13   am
     4     3     4    1
     5     3    30    1
     6     3    31    1
     7     4     5   ar
     8     4    12   ar
     9     5     6   ar
    10     6     7   ar
    11     7     8   ar
    12     7    12   ar
    13     8    32    1
    14     8     9   ar
    15     9    33    1
    16     9    10   ar
    17    10    34    1
    18    10    11   ar
    19    11    12   ar
    20    11    35    1
    21    13    14    1
    22    13    18    1
    23    14    36    1
    24    14    15    1
    25    14    37    1
    26    15    38    1
    27    15    16    1
    28    15    17    1
    29    16    39    1
    30    16    40    1
    31    16    17    1
    32    17    42    1
    33    17    41    1
    34    18    23   ar
    35    18    19   ar
    36    19    43    1
    37    19    20   ar
    38    20    21   ar
    39    20    44    1
    40    21    22   ar
    41    21    24    1
    42    22    23   ar
    43    22    45    1
    44    23    46    1
    45    24    29   ar
    46    24    25   ar
    47    25    47    1
    48    25    26   ar
    49    26    27   ar
    50    26    48    1
    51    27    28   ar
    52    27    49    1
    53    28    29   ar
    54    29    50    1
