@<TRIPOS>MOLECULE
/home/lqcapf-6/arquivos_joao/4D/Alinhamento/alinhadas1/Mol22_PAC_aligned.pdb
 55 58 0 0 0
SMALL
GASTEIGER

@<TRIPOS>ATOM
      1  C         26.1080   15.1200   18.0080 C.3     1  UNL1       -0.0626
      2  C         25.6830   13.7610   18.5570 C.3     1  UNL1       -0.0453
      3  C         26.0060   12.6400   17.6300 C.3     1  UNL1       -0.0626
      4  C         24.1730   13.7120   18.8330 C.3     1  UNL1       -0.0344
      5  C         23.7770   14.5980   20.0290 C.3     1  UNL1        0.0201
      6  N         22.3740   14.5610   20.5370 N.am    1  UNL1       -0.2699
      7  C         21.3880   15.5460   20.3850 C.2     1  UNL1        0.2413
      8  O         20.4120   15.6280   21.1970 O.2     1  UNL1       -0.2732
      9  C         21.5120   16.5150   19.2070 C.3     1  UNL1        0.1204
     10  N         20.2600   17.2100   18.8750 N.ar    1  UNL1       -0.2351
     11  N         20.0530   18.5200   18.9900 N.ar    1  UNL1       -0.0641
     12  N         18.9200   18.7820   18.4430 N.ar    1  UNL1       -0.1295
     13  C         18.3550   17.6460   18.0370 C.ar    1  UNL1        0.1127
     14  C         17.1410   17.4860   17.3930 C.ar    1  UNL1       -0.0324
     15  C         16.7860   16.1630   17.0270 C.ar    1  UNL1       -0.0596
     16  C         17.7700   15.0890   17.3040 C.ar    1  UNL1       -0.0596
     17  C         18.9890   15.3090   17.9110 C.ar    1  UNL1       -0.0345
     18  C         19.2080   16.6260   18.3230 C.ar    1  UNL1        0.0895
     19  C         22.0290   13.3180   21.0740 C.ar    1  UNL1        0.0363
     20  C         21.1650   12.5010   20.3000 C.ar    1  UNL1       -0.0397
     21  C         20.7780   11.2330   20.7190 C.ar    1  UNL1       -0.0522
     22  C         21.3400   10.6620   21.8860 C.ar    1  UNL1       -0.0163
     23  C         22.0930   11.5470   22.7040 C.ar    1  UNL1       -0.0522
     24  C         22.3830   12.8350   22.3220 C.ar    1  UNL1       -0.0397
     25  C         21.2160    9.2420   22.2540 C.ar    1  UNL1        0.0002
     26  C         21.1140    8.2870   21.1920 C.ar    1  UNL1       -0.0512
     27  C         21.3450    6.9280   21.5850 C.ar    1  UNL1       -0.0430
     28  C         21.5200    6.5840   22.9710 C.ar    1  UNL1        0.0276
     29  N         21.5090    7.5260   23.9070 N.ar    1  UNL1       -0.2627
     30  C         21.3050    8.8010   23.5730 C.ar    1  UNL1        0.0352
     31  H         25.8040   15.1890   16.9560 H       1  UNL1        0.0232
     32  H         25.6480   15.9890   18.4950 H       1  UNL1        0.0232
     33  H         27.1930   15.1890   17.8600 H       1  UNL1        0.0232
     34  H         26.2220   13.5810   19.4950 H       1  UNL1        0.0296
     35  H         25.3350   12.6610   16.7630 H       1  UNL1        0.0232
     36  H         27.0240   12.5900   17.2240 H       1  UNL1        0.0232
     37  H         25.8380   11.6820   18.1360 H       1  UNL1        0.0232
     38  H         23.6140   13.8830   17.9050 H       1  UNL1        0.0283
     39  H         23.8900   12.7010   19.1520 H       1  UNL1        0.0283
     40  H         24.5170   14.5350   20.8370 H       1  UNL1        0.0469
     41  H         23.9420   15.6690   19.8600 H       1  UNL1        0.0469
     42  H         22.2690   17.2890   19.3840 H       1  UNL1        0.0606
     43  H         21.8010   15.9990   18.2840 H       1  UNL1        0.0606
     44  H         16.4710   18.3370   17.3160 H       1  UNL1        0.0640
     45  H         15.8080   15.9230   16.6220 H       1  UNL1        0.0618
     46  H         17.4710   14.0720   17.0680 H       1  UNL1        0.0618
     47  H         19.5770   14.4380   18.1870 H       1  UNL1        0.0639
     48  H         20.6250   12.9370   19.4650 H       1  UNL1        0.0636
     49  H         20.1670   10.5520   20.1340 H       1  UNL1        0.0624
     50  H         22.5620   11.2360   23.6340 H       1  UNL1        0.0624
     51  H         22.8250   13.4760   23.0780 H       1  UNL1        0.0636
     52  H         21.1270    8.5570   20.1400 H       1  UNL1        0.0625
     53  H         21.3900    6.2130   20.7700 H       1  UNL1        0.0633
     54  H         21.9080    5.5910   23.1970 H       1  UNL1        0.0829
     55  H         21.2480    9.5220   24.3870 H       1  UNL1        0.0836
@<TRIPOS>BOND
     1     1     2    1
     2     1    33    1
     3     1    31    1
     4     1    32    1
     5     2     3    1
     6     2    34    1
     7     2     4    1
     8     3    37    1
     9     3    36    1
    10     3    35    1
    11     4    39    1
    12     4    38    1
    13     4     5    1
    14     5    40    1
    15     5     6    1
    16     5    41    1
    17     6    19    1
    18     6     7   am
    19     7     9    1
    20     7     8    2
    21     9    43    1
    22     9    42    1
    23     9    10    1
    24    10    18   ar
    25    10    11   ar
    26    11    12   ar
    27    12    13   ar
    28    13    18   ar
    29    13    14   ar
    30    14    15   ar
    31    14    44    1
    32    15    16   ar
    33    15    45    1
    34    16    46    1
    35    16    17   ar
    36    17    47    1
    37    17    18   ar
    38    19    24   ar
    39    19    20   ar
    40    20    21   ar
    41    20    48    1
    42    21    22   ar
    43    21    49    1
    44    22    25    1
    45    22    23   ar
    46    23    50    1
    47    23    24   ar
    48    24    51    1
    49    25    26   ar
    50    25    30   ar
    51    26    27   ar
    52    26    52    1
    53    27    53    1
    54    27    28   ar
    55    28    54    1
    56    28    29   ar
    57    29    30   ar
    58    30    55    1
