@<TRIPOS>MOLECULE
/home/lqcapf-6/arquivos_joao/4D/Alinhamento/alinhadas1/Mol29_PAC_aligned.pdb
 53 57 0 0 0
SMALL
GASTEIGER

@<TRIPOS>ATOM
      1  F         28.4020   18.3190   21.0600 F       1  UNL1       -0.2040
      2  C         27.0100   18.4580   21.1480 C.ar    1  UNL1        0.1416
      3  C         26.2020   17.4700   20.5590 C.ar    1  UNL1       -0.0247
      4  C         24.7960   17.5330   20.5750 C.ar    1  UNL1       -0.0543
      5  C         24.1490   18.5620   21.2960 C.ar    1  UNL1       -0.0282
      6  C         24.9450   19.5180   21.9610 C.ar    1  UNL1       -0.0359
      7  C         26.3920   19.4980   21.8490 C.ar    1  UNL1        0.0764
      8 CL         27.3680   20.6110   22.8570 Cl      1  UNL1       -0.0806
      9  C         22.5620   18.6450   21.3410 C.3     1  UNL1        0.0449
     10  N         21.9430   17.4130   21.9270 N.am    1  UNL1       -0.2656
     11  C         21.4670   16.3760   21.1170 C.2     1  UNL1        0.2416
     12  O         21.1340   15.2870   21.6320 O.2     1  UNL1       -0.2732
     13  C         21.4200   16.5230   19.5330 C.3     1  UNL1        0.1204
     14  N         20.2990   17.2120   18.9160 N.ar    1  UNL1       -0.2351
     15  N         20.0670   18.5760   19.0280 N.ar    1  UNL1       -0.0641
     16  N         18.9190   18.8500   18.4500 N.ar    1  UNL1       -0.1295
     17  C         18.3830   17.6720   17.9710 C.ar    1  UNL1        0.1127
     18  C         17.1290   17.4300   17.4020 C.ar    1  UNL1       -0.0324
     19  C         16.8210   16.1140   17.0420 C.ar    1  UNL1       -0.0596
     20  C         17.7120   15.0300   17.2930 C.ar    1  UNL1       -0.0596
     21  C         18.9140   15.3040   17.9690 C.ar    1  UNL1       -0.0345
     22  C         19.2400   16.6440   18.2320 C.ar    1  UNL1        0.0895
     23  C         21.8670   17.4300   23.3600 C.ar    1  UNL1        0.0367
     24  C         22.7560   16.6290   24.0680 C.ar    1  UNL1       -0.0397
     25  C         22.7360   16.5580   25.5190 C.ar    1  UNL1       -0.0522
     26  C         21.6950   17.2590   26.2040 C.ar    1  UNL1       -0.0163
     27  C         20.6520   17.9300   25.4300 C.ar    1  UNL1       -0.0522
     28  C         20.8230   17.9840   24.0390 C.ar    1  UNL1       -0.0397
     29  C         21.4500   17.0520   27.6310 C.ar    1  UNL1        0.0002
     30  C         21.7650   15.8210   28.2590 C.ar    1  UNL1       -0.0512
     31  C         21.3240   15.4740   29.5730 C.ar    1  UNL1       -0.0430
     32  C         20.7340   16.5050   30.3220 C.ar    1  UNL1        0.0276
     33  N         20.3980   17.7030   29.7660 N.ar    1  UNL1       -0.2627
     34  C         20.6990   17.9750   28.4840 C.ar    1  UNL1        0.0352
     35  H         26.6630   16.6280   20.0500 H       1  UNL1        0.0647
     36  H         24.2810   16.6910   20.1190 H       1  UNL1        0.0622
     37  H         24.4570   20.2850   22.5570 H       1  UNL1        0.0636
     38  H         22.1750   19.5940   21.7330 H       1  UNL1        0.0518
     39  H         22.2380   18.7940   20.3030 H       1  UNL1        0.0518
     40  H         22.3580   16.9960   19.2190 H       1  UNL1        0.0606
     41  H         21.4120   15.4740   19.2090 H       1  UNL1        0.0606
     42  H         16.4130   18.2410   17.3130 H       1  UNL1        0.0640
     43  H         15.8150   15.9730   16.6550 H       1  UNL1        0.0618
     44  H         17.4620   14.0100   17.0170 H       1  UNL1        0.0618
     45  H         19.6630   14.5850   18.2860 H       1  UNL1        0.0639
     46  H         23.5280   16.1160   23.5040 H       1  UNL1        0.0636
     47  H         23.3700   15.8150   25.9930 H       1  UNL1        0.0624
     48  H         19.7710   18.4380   25.8100 H       1  UNL1        0.0624
     49  H         20.1110   18.5540   23.4490 H       1  UNL1        0.0636
     50  H         22.2640   15.0330   27.7020 H       1  UNL1        0.0625
     51  H         21.5460   14.5260   30.0530 H       1  UNL1        0.0633
     52  H         20.5470   16.3490   31.3840 H       1  UNL1        0.0829
     53  H         20.4330   18.9390   28.0550 H       1  UNL1        0.0836
@<TRIPOS>BOND
     1     1     2    1
     2     2     7   ar
     3     2     3   ar
     4     3     4   ar
     5     3    35    1
     6     4     5   ar
     7     4    36    1
     8     5     6   ar
     9     5     9    1
    10     6    37    1
    11     6     7   ar
    12     7     8    1
    13     9    38    1
    14     9    39    1
    15     9    10    1
    16    10    23    1
    17    10    11   am
    18    11    13    1
    19    11    12    2
    20    13    40    1
    21    13    14    1
    22    13    41    1
    23    14    15   ar
    24    14    22   ar
    25    15    16   ar
    26    16    17   ar
    27    17    18   ar
    28    17    22   ar
    29    18    42    1
    30    18    19   ar
    31    19    43    1
    32    19    20   ar
    33    20    21   ar
    34    20    44    1
    35    21    22   ar
    36    21    45    1
    37    23    28   ar
    38    23    24   ar
    39    24    25   ar
    40    24    46    1
    41    25    26   ar
    42    25    47    1
    43    26    29    1
    44    26    27   ar
    45    27    48    1
    46    27    28   ar
    47    28    49    1
    48    29    34   ar
    49    29    30   ar
    50    30    31   ar
    51    30    50    1
    52    31    32   ar
    53    31    51    1
    54    32    33   ar
    55    32    52    1
    56    33    34   ar
    57    34    53    1
