@<TRIPOS>MOLECULE
/home/lqcapf-6/arquivos_joao/4D/Alinhamento/alinhadas1/Mol26_PAC_aligned.pdb
 54 58 0 0 0
SMALL
GASTEIGER

@<TRIPOS>ATOM
      1  O         19.7600   15.3510   21.1110 O.2     1  UNL1       -0.2735
      2  C         20.9240   15.4730   20.6740 C.2     1  UNL1        0.2387
      3  C         21.3270   16.3970   19.5090 C.3     1  UNL1        0.1081
      4  N         20.1890   17.1600   18.9750 N.pl3   1  UNL1       -0.2199
      5  N         20.1310   18.5320   18.9240 N.3     1  UNL1       -0.0148
      6  N         18.9330   18.8730   18.4730 N.pl3   1  UNL1       -0.1285
      7  C         18.3430   17.7000   18.0080 C.ar    1  UNL1        0.0926
      8  C         17.0790   17.4410   17.4420 C.ar    1  UNL1       -0.0356
      9  C         16.8460   16.1390   17.0120 C.ar    1  UNL1       -0.0598
     10  C         17.8550   15.0920   17.1740 C.ar    1  UNL1       -0.0599
     11  C         18.9520   15.2790   17.9870 C.ar    1  UNL1       -0.0374
     12  C         19.1560   16.6180   18.3100 C.ar    1  UNL1        0.0723
     13  N         21.9700   14.8430   21.3950 N.am    1  UNL1       -0.2697
     14  C         23.3510   15.1480   21.1840 C.3     1  UNL1        0.0248
     15  C         24.3920   14.2090   21.8750 C.3     1  UNL1        0.0007
     16  C         25.8590   14.6110   21.6590 C.3     1  UNL1       -0.0231
     17  C         26.4980   13.2840   21.5380 C.3     1  UNL1        0.0480
     18  O         25.5580   12.4430   20.9530 O.3     1  UNL1       -0.3794
     19  C         24.2930   12.7240   21.5200 C.3     1  UNL1        0.0520
     20  C         21.5890   13.9070   22.3970 C.ar    1  UNL1        0.0363
     21  C         21.5720   14.2470   23.7530 C.ar    1  UNL1       -0.0397
     22  C         21.1900   13.3140   24.7590 C.ar    1  UNL1       -0.0522
     23  C         20.9110   11.9950   24.4630 C.ar    1  UNL1       -0.0163
     24  C         20.9850   11.6020   23.0740 C.ar    1  UNL1       -0.0522
     25  C         21.2740   12.5560   22.0620 C.ar    1  UNL1       -0.0397
     26  C         20.5240   10.9960   25.5680 C.ar    1  UNL1        0.0002
     27  C         20.1480   11.3880   26.8920 C.ar    1  UNL1       -0.0512
     28  C         19.7190   10.4330   27.8520 C.ar    1  UNL1       -0.0430
     29  C         19.7880    9.0880   27.4440 C.ar    1  UNL1        0.0276
     30  N         20.2480    8.6770   26.2250 N.ar    1  UNL1       -0.2627
     31  C         20.6680    9.6250   25.3150 C.ar    1  UNL1        0.0352
     32  H         22.0910   17.1090   19.8450 H       1  UNL1        0.0576
     33  H         21.7620   15.7110   18.7720 H       1  UNL1        0.0576
     34  H         16.4120   18.2710   17.2270 H       1  UNL1        0.0638
     35  H         15.9520   15.9810   16.4150 H       1  UNL1        0.0618
     36  H         17.7220   14.0940   16.7650 H       1  UNL1        0.0618
     37  H         19.7450   14.5520   18.1340 H       1  UNL1        0.0637
     38  H         23.6460   15.1310   20.1280 H       1  UNL1        0.0472
     39  H         23.5370   16.1810   21.5060 H       1  UNL1        0.0472
     40  H         24.2370   14.3480   22.9530 H       1  UNL1        0.0339
     41  H         25.9330   15.1490   20.7050 H       1  UNL1        0.0291
     42  H         26.2230   15.2470   22.4750 H       1  UNL1        0.0291
     43  H         27.4000   13.4830   20.9470 H       1  UNL1        0.0560
     44  H         26.7870   12.8420   22.4990 H       1  UNL1        0.0560
     45  H         24.1410   12.0230   22.3510 H       1  UNL1        0.0563
     46  H         23.4800   12.6110   20.7930 H       1  UNL1        0.0563
     47  H         21.7810   15.2950   23.9480 H       1  UNL1        0.0636
     48  H         21.2470   13.6260   25.7970 H       1  UNL1        0.0624
     49  H         20.7210   10.5920   22.7730 H       1  UNL1        0.0624
     50  H         21.2950   12.2040   21.0340 H       1  UNL1        0.0636
     51  H         20.2690   12.3850   27.3060 H       1  UNL1        0.0625
     52  H         19.3550   10.6390   28.8540 H       1  UNL1        0.0633
     53  H         19.5380    8.2300   28.0660 H       1  UNL1        0.0829
     54  H         20.9290    9.2090   24.3430 H       1  UNL1        0.0836
@<TRIPOS>BOND
     1     1     2    2
     2     2     3    1
     3     2    13   am
     4     3    33    1
     5     3     4    1
     6     3    32    1
     7     4    12    1
     8     4     5    1
     9     5     6    1
    10     6     7    1
    11     7     8   ar
    12     7    12   ar
    13     8     9   ar
    14     8    34    1
    15     9    35    1
    16     9    10   ar
    17    10    36    1
    18    10    11   ar
    19    11    37    1
    20    11    12   ar
    21    13    20    1
    22    13    14    1
    23    14    38    1
    24    14    15    1
    25    14    39    1
    26    15    19    1
    27    15    16    1
    28    15    40    1
    29    16    41    1
    30    16    17    1
    31    16    42    1
    32    17    18    1
    33    17    43    1
    34    17    44    1
    35    18    19    1
    36    19    46    1
    37    19    45    1
    38    20    25   ar
    39    20    21   ar
    40    21    22   ar
    41    21    47    1
    42    22    23   ar
    43    22    48    1
    44    23    24   ar
    45    23    26    1
    46    24    49    1
    47    24    25   ar
    48    25    50    1
    49    26    31   ar
    50    26    27   ar
    51    27    28   ar
    52    27    51    1
    53    28    29   ar
    54    28    52    1
    55    29    30   ar
    56    29    53    1
    57    30    31   ar
    58    31    54    1
