@<TRIPOS>MOLECULE
/home/lqcapf-6/arquivos_joao/4D/Alinhamento/alinhadas1/Mol27_PAC_aligned.pdb
 49 53 0 0 0
SMALL
GASTEIGER

@<TRIPOS>ATOM
      1  O         20.7990   15.7830   21.1000 O.2     1  UNL1       -0.2732
      2  C         21.6550   15.7130   20.2470 C.2     1  UNL1        0.2414
      3  C         21.6260   16.5630   18.9400 C.3     1  UNL1        0.1204
      4  N         20.3190   17.1930   18.7700 N.ar    1  UNL1       -0.2351
      5  N         20.0770   18.5840   18.9600 N.ar    1  UNL1       -0.0641
      6  N         18.8400   18.7980   18.5150 N.ar    1  UNL1       -0.1295
      7  C         18.3370   17.6620   18.0600 C.ar    1  UNL1        0.1127
      8  C         17.1100   17.5250   17.4880 C.ar    1  UNL1       -0.0324
      9  C         16.8840   16.1970   17.0270 C.ar    1  UNL1       -0.0596
     10  C         17.7310   15.0360   17.3010 C.ar    1  UNL1       -0.0596
     11  C         18.9980   15.2630   17.9220 C.ar    1  UNL1       -0.0345
     12  C         19.1870   16.5750   18.2590 C.ar    1  UNL1        0.0895
     13  N         22.6500   14.7860   20.4010 N.am    1  UNL1       -0.2680
     14  C         23.9240   14.8250   19.6230 C.3     1  UNL1        0.0426
     15  C         23.7190   14.3380   18.2370 C.3     1  UNL1        0.0888
     16  C         24.1880   15.0660   17.1480 C.3     1  UNL1        0.0437
     17  S         24.1850   14.1220   15.7800 S.3     1  UNL1       -0.1314
     18  C         23.4390   12.8410   16.6920 C.3     1  UNL1        0.0979
     19  N         23.4390   13.0270   17.9800 N.3     1  UNL1       -0.2127
     20  C         22.6230   13.8890   21.5010 C.ar    1  UNL1        0.0364
     21  C         22.9350   14.3730   22.7780 C.ar    1  UNL1       -0.0397
     22  C         22.7050   13.6090   23.9200 C.ar    1  UNL1       -0.0522
     23  C         22.2750   12.2790   23.8000 C.ar    1  UNL1       -0.0163
     24  C         22.1070   11.7600   22.5120 C.ar    1  UNL1       -0.0522
     25  C         22.2730   12.5860   21.3630 C.ar    1  UNL1       -0.0397
     26  C         21.9760   11.3610   25.0540 C.ar    1  UNL1        0.0002
     27  C         22.7200   11.2890   26.2160 C.ar    1  UNL1       -0.0512
     28  C         22.3550   10.5300   27.2990 C.ar    1  UNL1       -0.0430
     29  C         21.2810    9.6640   27.1150 C.ar    1  UNL1        0.0276
     30  N         20.4170    9.7550   26.0440 N.ar    1  UNL1       -0.2627
     31  C         20.8160   10.5680   25.0510 C.ar    1  UNL1        0.0352
     32  H         22.4400   17.2910   19.0370 H       1  UNL1        0.0606
     33  H         21.7350   15.8680   18.0980 H       1  UNL1        0.0606
     34  H         16.5060   18.3940   17.2460 H       1  UNL1        0.0640
     35  H         15.9550   16.0790   16.4770 H       1  UNL1        0.0618
     36  H         17.5060   14.0390   16.9360 H       1  UNL1        0.0618
     37  H         19.6680   14.5350   18.3680 H       1  UNL1        0.0639
     38  H         24.3780   15.8210   19.6920 H       1  UNL1        0.0488
     39  H         24.6600   14.1790   20.1160 H       1  UNL1        0.0488
     40  H         24.4780   16.1080   17.1830 H       1  UNL1        0.0444
     41  H         23.1180   11.9340   16.1990 H       1  UNL1        0.0616
     42  H         23.4070   15.3300   22.9820 H       1  UNL1        0.0636
     43  H         22.8720   13.9700   24.9300 H       1  UNL1        0.0624
     44  H         21.6470   10.8050   22.2750 H       1  UNL1        0.0624
     45  H         22.2260   12.1670   20.3630 H       1  UNL1        0.0636
     46  H         23.6510   11.8260   26.3820 H       1  UNL1        0.0625
     47  H         22.9890   10.4810   28.1790 H       1  UNL1        0.0633
     48  H         21.0280    8.9600   27.9060 H       1  UNL1        0.0829
     49  H         20.1950   10.5620   24.1570 H       1  UNL1        0.0836
@<TRIPOS>BOND
     1     1     2    2
     2     2     3    1
     3     2    13   am
     4     3     4    1
     5     3    32    1
     6     3    33    1
     7     4     5   ar
     8     4    12   ar
     9     5     6   ar
    10     6     7   ar
    11     7     8   ar
    12     7    12   ar
    13     8    34    1
    14     8     9   ar
    15     9    35    1
    16     9    10   ar
    17    10    11   ar
    18    10    36    1
    19    11    12   ar
    20    11    37    1
    21    13    20    1
    22    13    14    1
    23    14    38    1
    24    14    39    1
    25    14    15    1
    26    15    19    1
    27    15    16    1
    28    16    40    1
    29    16    17    1
    30    17    18    1
    31    18    19    1
    32    18    41    1
    33    20    21   ar
    34    20    25   ar
    35    21    22   ar
    36    21    42    1
    37    22    43    1
    38    22    23   ar
    39    23    26    1
    40    23    24   ar
    41    24    44    1
    42    24    25   ar
    43    25    45    1
    44    26    27   ar
    45    26    31   ar
    46    27    28   ar
    47    27    46    1
    48    28    47    1
    49    28    29   ar
    50    29    48    1
    51    29    30   ar
    52    30    31   ar
    53    31    49    1
