@<TRIPOS>MOLECULE
/home/lqcapf-6/arquivos_joao/4D/Alinhamento/alinhadas1/Mol28_PAC_aligned.pdb
 53 57 0 0 0
SMALL
GASTEIGER

@<TRIPOS>ATOM
      1 CL         24.5690   19.5060   25.8220 Cl      1  UNL1       -0.0835
      2  C         23.5530   19.1910   24.4390 C.ar    1  UNL1        0.0413
      3  C         22.2930   19.7690   24.3030 C.ar    1  UNL1       -0.0434
      4  C         21.5170   19.5100   23.1700 C.ar    1  UNL1       -0.0601
      5  C         22.0060   18.5730   22.2410 C.ar    1  UNL1       -0.0570
      6  C         23.2390   17.9040   22.4030 C.ar    1  UNL1       -0.0283
      7  C         24.0280   18.2290   23.5260 C.ar    1  UNL1       -0.0387
      8  C         23.8810   17.0590   21.3250 C.3     1  UNL1        0.0449
      9  N         23.7550   17.6160   19.9620 N.am    1  UNL1       -0.2656
     10  C         22.7830   17.2730   18.9970 C.2     1  UNL1        0.2416
     11  O         22.9410   17.8790   17.9360 O.2     1  UNL1       -0.2732
     12  C         21.5280   16.5060   19.3310 C.3     1  UNL1        0.1204
     13  N         20.2930   17.2080   18.8740 N.ar    1  UNL1       -0.2351
     14  N         20.0540   18.5500   18.9800 N.ar    1  UNL1       -0.0641
     15  N         18.8740   18.8260   18.4510 N.ar    1  UNL1       -0.1295
     16  C         18.4270   17.6580   18.0440 C.ar    1  UNL1        0.1127
     17  C         17.1410   17.5010   17.3880 C.ar    1  UNL1       -0.0324
     18  C         16.7870   16.1570   17.0690 C.ar    1  UNL1       -0.0596
     19  C         17.7150   15.1180   17.2710 C.ar    1  UNL1       -0.0596
     20  C         18.9520   15.2280   17.9360 C.ar    1  UNL1       -0.0345
     21  C         19.2400   16.5850   18.2900 C.ar    1  UNL1        0.0895
     22  C         24.8570   18.4490   19.5610 C.ar    1  UNL1        0.0367
     23  C         25.8970   17.9490   18.7010 C.ar    1  UNL1       -0.0397
     24  C         26.9190   18.8310   18.2550 C.ar    1  UNL1       -0.0522
     25  C         26.9320   20.1700   18.7260 C.ar    1  UNL1       -0.0163
     26  C         25.8190   20.7090   19.4320 C.ar    1  UNL1       -0.0522
     27  C         24.8270   19.7890   19.8930 C.ar    1  UNL1       -0.0397
     28  C         28.1180   21.0890   18.3760 C.ar    1  UNL1        0.0002
     29  C         29.4220   20.5740   18.0390 C.ar    1  UNL1       -0.0512
     30  C         30.3970   21.5070   17.6830 C.ar    1  UNL1       -0.0430
     31  C         30.0620   22.8780   17.6920 C.ar    1  UNL1        0.0276
     32  N         28.9220   23.4060   18.0320 N.ar    1  UNL1       -0.2627
     33  C         27.9300   22.4660   18.3850 C.ar    1  UNL1        0.0352
     34  H         22.0110   20.6120   24.9270 H       1  UNL1        0.0632
     35  H         20.5120   19.9150   23.0940 H       1  UNL1        0.0618
     36  H         21.3520   18.3440   21.4050 H       1  UNL1        0.0621
     37  H         25.0280   17.8330   23.6790 H       1  UNL1        0.0635
     38  H         24.9510   16.9270   21.5280 H       1  UNL1        0.0518
     39  H         23.3920   16.0770   21.3290 H       1  UNL1        0.0518
     40  H         21.6120   15.5430   18.8130 H       1  UNL1        0.0606
     41  H         21.4600   16.4040   20.4220 H       1  UNL1        0.0606
     42  H         16.4810   18.3500   17.2450 H       1  UNL1        0.0640
     43  H         15.8280   15.9950   16.5880 H       1  UNL1        0.0618
     44  H         17.4040   14.1010   17.0520 H       1  UNL1        0.0618
     45  H         19.6780   14.4390   18.1120 H       1  UNL1        0.0639
     46  H         25.9900   16.8850   18.5020 H       1  UNL1        0.0636
     47  H         27.7130   18.3440   17.6990 H       1  UNL1        0.0624
     48  H         25.7220   21.7620   19.6810 H       1  UNL1        0.0624
     49  H         23.9990   20.2600   20.4130 H       1  UNL1        0.0636
     50  H         29.7460   19.5400   18.1080 H       1  UNL1        0.0625
     51  H         31.3770   21.1850   17.3450 H       1  UNL1        0.0633
     52  H         30.7680   23.6210   17.3250 H       1  UNL1        0.0829
     53  H         26.9620   22.8820   18.6610 H       1  UNL1        0.0836
@<TRIPOS>BOND
     1     1     2    1
     2     2     7   ar
     3     2     3   ar
     4     3     4   ar
     5     3    34    1
     6     4     5   ar
     7     4    35    1
     8     5    36    1
     9     5     6   ar
    10     6     8    1
    11     6     7   ar
    12     7    37    1
    13     8    39    1
    14     8     9    1
    15     8    38    1
    16     9    10   am
    17     9    22    1
    18    10    12    1
    19    10    11    2
    20    12    40    1
    21    12    13    1
    22    12    41    1
    23    13    21   ar
    24    13    14   ar
    25    14    15   ar
    26    15    16   ar
    27    16    17   ar
    28    16    21   ar
    29    17    18   ar
    30    17    42    1
    31    18    43    1
    32    18    19   ar
    33    19    44    1
    34    19    20   ar
    35    20    45    1
    36    20    21   ar
    37    22    23   ar
    38    22    27   ar
    39    23    46    1
    40    23    24   ar
    41    24    47    1
    42    24    25   ar
    43    25    26   ar
    44    25    28    1
    45    26    27   ar
    46    26    48    1
    47    27    49    1
    48    28    29   ar
    49    28    33   ar
    50    29    50    1
    51    29    30   ar
    52    30    51    1
    53    30    31   ar
    54    31    32   ar
    55    31    52    1
    56    32    33   ar
    57    33    53    1
