@<TRIPOS>MOLECULE
/home/lqcapf-6/arquivos_joao/4D/Alinhamento/alinhadas1/Mol25_PAC_aligned.pdb
 56 60 0 0 0
SMALL
GASTEIGER

@<TRIPOS>ATOM
      1  O         21.3050   16.8510   21.5210 O.2     1  UNL1       -0.2732
      2  C         22.0100   16.3830   20.5920 C.2     1  UNL1        0.2413
      3  C         21.5780   16.5210   19.1160 C.3     1  UNL1        0.1204
      4  N         20.3050   17.2120   18.8990 N.ar    1  UNL1       -0.2351
      5  N         20.0770   18.5480   19.0170 N.ar    1  UNL1       -0.0641
      6  N         18.9410   18.8780   18.4270 N.ar    1  UNL1       -0.1295
      7  C         18.3220   17.7050   18.0820 C.ar    1  UNL1        0.1127
      8  C         17.1050   17.4370   17.4470 C.ar    1  UNL1       -0.0324
      9  C         16.8480   16.0750   17.0290 C.ar    1  UNL1       -0.0596
     10  C         17.7610   15.0160   17.2010 C.ar    1  UNL1       -0.0596
     11  C         18.9300   15.3310   17.9060 C.ar    1  UNL1       -0.0345
     12  C         19.1950   16.6320   18.2940 C.ar    1  UNL1        0.0895
     13  N         23.3100   15.8390   20.9070 N.am    1  UNL1       -0.2696
     14  C         24.0210   15.0860   19.8550 C.3     1  UNL1        0.0227
     15  C         23.4270   13.6790   19.5880 C.3     1  UNL1       -0.0248
     16  C         23.8430   12.9530   18.2890 C.3     1  UNL1       -0.0488
     17  C         23.7850   11.4120   18.5930 C.3     1  UNL1       -0.0527
     18  C         23.7240   11.1510   20.1370 C.3     1  UNL1       -0.0527
     19  C         23.9730   12.5810   20.6160 C.3     1  UNL1       -0.0488
     20  C         23.8180   15.7350   22.2930 C.ar    1  UNL1        0.0364
     21  C         24.9810   16.3030   22.8520 C.ar    1  UNL1       -0.0397
     22  C         25.3190   16.1440   24.1830 C.ar    1  UNL1       -0.0522
     23  C         24.5010   15.4680   25.1220 C.ar    1  UNL1       -0.0163
     24  C         23.3400   14.9580   24.6260 C.ar    1  UNL1       -0.0522
     25  C         22.9860   15.1000   23.2610 C.ar    1  UNL1       -0.0397
     26  C         25.0130   15.2270   26.4980 C.ar    1  UNL1        0.0002
     27  C         26.1470   15.9050   26.9990 C.ar    1  UNL1       -0.0512
     28  C         26.5820   15.6110   28.2850 C.ar    1  UNL1       -0.0430
     29  C         25.7810   14.7990   29.0530 C.ar    1  UNL1        0.0276
     30  N         24.6990   14.1390   28.6040 N.ar    1  UNL1       -0.2627
     31  C         24.3150   14.4090   27.3370 C.ar    1  UNL1        0.0352
     32  H         22.3580   17.0200   18.5300 H       1  UNL1        0.0606
     33  H         21.4570   15.5280   18.6640 H       1  UNL1        0.0606
     34  H         16.3710   18.1940   17.1860 H       1  UNL1        0.0640
     35  H         15.9080   15.8160   16.5530 H       1  UNL1        0.0618
     36  H         17.5370   14.0380   16.7860 H       1  UNL1        0.0618
     37  H         19.5930   14.5010   18.1330 H       1  UNL1        0.0639
     38  H         23.9230   15.6500   18.9180 H       1  UNL1        0.0471
     39  H         25.0550   15.0480   20.2220 H       1  UNL1        0.0471
     40  H         22.3320   13.7100   19.6450 H       1  UNL1        0.0316
     41  H         23.1220   13.1510   17.4860 H       1  UNL1        0.0268
     42  H         24.8320   13.2520   17.9220 H       1  UNL1        0.0268
     43  H         22.8130   11.0110   18.2790 H       1  UNL1        0.0265
     44  H         24.6230   10.8890   18.1150 H       1  UNL1        0.0265
     45  H         22.8000   10.6630   20.4690 H       1  UNL1        0.0265
     46  H         24.5840   10.4880   20.2930 H       1  UNL1        0.0265
     47  H         25.0660   12.6640   20.6670 H       1  UNL1        0.0268
     48  H         23.5670   12.6730   21.6310 H       1  UNL1        0.0268
     49  H         25.7180   16.8490   22.2690 H       1  UNL1        0.0636
     50  H         26.2510   16.6360   24.4420 H       1  UNL1        0.0624
     51  H         22.6610   14.4060   25.2690 H       1  UNL1        0.0624
     52  H         22.0350   14.6540   22.9830 H       1  UNL1        0.0636
     53  H         26.6790   16.6130   26.3720 H       1  UNL1        0.0625
     54  H         27.5510   15.9460   28.6450 H       1  UNL1        0.0633
     55  H         26.1100   14.4680   30.0380 H       1  UNL1        0.0829
     56  H         23.3850   13.8910   27.1030 H       1  UNL1        0.0836
@<TRIPOS>BOND
     1     1     2    2
     2     2    13   am
     3     2     3    1
     4     3     4    1
     5     3    33    1
     6     3    32    1
     7     4    12   ar
     8     4     5   ar
     9     5     6   ar
    10     6     7   ar
    11     7     8   ar
    12     7    12   ar
    13     8    34    1
    14     8     9   ar
    15     9    35    1
    16     9    10   ar
    17    10    11   ar
    18    10    36    1
    19    11    37    1
    20    11    12   ar
    21    13    20    1
    22    13    14    1
    23    14    15    1
    24    14    39    1
    25    14    38    1
    26    15    19    1
    27    15    40    1
    28    15    16    1
    29    16    17    1
    30    16    41    1
    31    16    42    1
    32    17    18    1
    33    17    43    1
    34    17    44    1
    35    18    45    1
    36    18    19    1
    37    18    46    1
    38    19    48    1
    39    19    47    1
    40    20    25   ar
    41    20    21   ar
    42    21    22   ar
    43    21    49    1
    44    22    23   ar
    45    22    50    1
    46    23    26    1
    47    23    24   ar
    48    24    51    1
    49    24    25   ar
    50    25    52    1
    51    26    31   ar
    52    26    27   ar
    53    27    28   ar
    54    27    53    1
    55    28    29   ar
    56    28    54    1
    57    29    55    1
    58    29    30   ar
    59    30    31   ar
    60    31    56    1
