@<TRIPOS>MOLECULE
/home/lqcapf-6/arquivos_joao/4D/Alinhamento/alinhadas1/Mol21_PAC_aligned.pdb
 48 52 0 0 0
SMALL
GASTEIGER

@<TRIPOS>ATOM
      1  O         19.7790   15.7120   21.0250 O.2     1  UNL1       -0.2732
      2  C         20.9540   15.8190   20.8290 C.2     1  UNL1        0.2416
      3  C         21.4460   16.5900   19.5910 C.3     1  UNL1        0.1204
      4  N         20.3170   17.2350   18.8450 N.ar    1  UNL1       -0.2351
      5  N         20.0360   18.5410   19.0920 N.ar    1  UNL1       -0.0641
      6  N         18.9120   18.8090   18.4870 N.ar    1  UNL1       -0.1295
      7  C         18.3980   17.7080   17.8740 C.ar    1  UNL1        0.1127
      8  C         17.1850   17.4640   17.2900 C.ar    1  UNL1       -0.0324
      9  C         16.8260   16.0560   17.0770 C.ar    1  UNL1       -0.0596
     10  C         17.6710   15.0080   17.4620 C.ar    1  UNL1       -0.0596
     11  C         18.9010   15.3280   18.0160 C.ar    1  UNL1       -0.0345
     12  C         19.2370   16.6840   18.1600 C.ar    1  UNL1        0.0895
     13  N         21.8780   15.2790   21.7450 N.am    1  UNL1       -0.2656
     14  C         23.2940   15.6910   21.8370 C.3     1  UNL1        0.0454
     15  C         24.1960   14.6250   21.2610 C.ar    1  UNL1       -0.0227
     16  C         25.5890   14.6730   21.6190 C.ar    1  UNL1       -0.0500
     17  C         26.2680   13.6250   20.9510 C.ar    1  UNL1       -0.0240
     18  S         25.1950   12.7000   19.9030 S.2     1  UNL1       -0.1047
     19  C         23.8130   13.6550   20.3760 C.ar    1  UNL1       -0.0196
     20  C         21.3800   14.3400   22.7400 C.ar    1  UNL1        0.0367
     21  C         20.7430   13.1930   22.3520 C.ar    1  UNL1       -0.0396
     22  C         19.9710   12.5260   23.3410 C.ar    1  UNL1       -0.0508
     23  C         20.0980   12.7690   24.7300 C.ar    1  UNL1        0.0019
     24  C         20.9360   13.8550   25.0560 C.ar    1  UNL1       -0.0508
     25  C         21.4990   14.6560   24.1350 C.ar    1  UNL1       -0.0396
     26  C         19.2870   12.0010   25.7590 C.ar    1  UNL1        0.0885
     27  C         18.4620   10.9920   25.4740 C.ar    1  UNL1        0.0290
     28  N         17.8720   10.6290   26.7130 N.ar    1  UNL1       -0.3503
     29  C         18.5900   11.3550   27.6670 C.ar    1  UNL1        0.0940
     30  N         19.3380   12.2540   27.0830 N.ar    1  UNL1       -0.2360
     31  H         22.1140   17.3790   19.9570 H       1  UNL1        0.0606
     32  H         21.9240   15.8810   18.9040 H       1  UNL1        0.0606
     33  H         16.6010   18.3300   16.9920 H       1  UNL1        0.0640
     34  H         15.8990   15.7410   16.6050 H       1  UNL1        0.0618
     35  H         17.2630   14.0040   17.4040 H       1  UNL1        0.0618
     36  H         19.5760   14.5400   18.3410 H       1  UNL1        0.0639
     37  H         23.4680   16.6450   21.3260 H       1  UNL1        0.0518
     38  H         23.4820   15.8360   22.9080 H       1  UNL1        0.0518
     39  H         26.0210   15.4060   22.2900 H       1  UNL1        0.0626
     40  H         27.3220   13.4150   21.0780 H       1  UNL1        0.0693
     41  H         22.8100   13.6390   19.9700 H       1  UNL1        0.0696
     42  H         20.5110   13.0700   21.2980 H       1  UNL1        0.0636
     43  H         19.2580   11.7400   23.1070 H       1  UNL1        0.0625
     44  H         21.0510   14.1350   26.0980 H       1  UNL1        0.0625
     45  H         21.7830   15.6750   24.3800 H       1  UNL1        0.0636
     46  H         18.3620   10.5100   24.5110 H       1  UNL1        0.0829
     47  H         18.5090   11.1670   28.7290 H       1  UNL1        0.1027
     48  H         17.2010    9.8970   26.9000 H       1  UNL1        0.1662
@<TRIPOS>BOND
     1     1     2    2
     2     2     3    1
     3     2    13   am
     4     3     4    1
     5     3    32    1
     6     3    31    1
     7     4    12   ar
     8     4     5   ar
     9     5     6   ar
    10     6     7   ar
    11     7     8   ar
    12     7    12   ar
    13     8     9   ar
    14     8    33    1
    15     9    34    1
    16     9    10   ar
    17    10    35    1
    18    10    11   ar
    19    11    36    1
    20    11    12   ar
    21    13    20    1
    22    13    14    1
    23    14    15    1
    24    14    37    1
    25    14    38    1
    26    15    19   ar
    27    15    16   ar
    28    16    17   ar
    29    16    39    1
    30    17    18   ar
    31    17    40    1
    32    18    19   ar
    33    19    41    1
    34    20    21   ar
    35    20    25   ar
    36    21    42    1
    37    21    22   ar
    38    22    43    1
    39    22    23   ar
    40    23    26    1
    41    23    24   ar
    42    24    25   ar
    43    24    44    1
    44    25    45    1
    45    26    27   ar
    46    26    30   ar
    47    27    46    1
    48    27    28   ar
    49    28    48    1
    50    28    29   ar
    51    29    47    1
    52    29    30   ar
