@<TRIPOS>MOLECULE
/home/lqcapf-6/arquivos_joao/4D/Alinhamento/alinhadas1/Mol38_PAC_aligned.pdb
 55 59 0 0 0
SMALL
GASTEIGER

@<TRIPOS>ATOM
      1  C         25.2850   15.9510   23.9450 C.3     1  UNL1        0.0789
      2  O         24.1570   15.6320   23.0880 O.3     1  UNL1       -0.4932
      3  C         23.3830   14.4840   23.1800 C.ar    1  UNL1        0.1420
      4  C         23.2320   13.7530   24.3620 C.ar    1  UNL1       -0.0103
      5  C         22.3570   12.6370   24.5280 C.ar    1  UNL1       -0.0114
      6  C         21.5300   12.3440   23.3780 C.ar    1  UNL1       -0.0519
      7  C         21.5980   13.1160   22.1910 C.ar    1  UNL1       -0.0361
      8  C         22.5040   14.1740   22.0920 C.ar    1  UNL1        0.0786
      9  N         22.5350   14.8890   20.9100 N.am    1  UNL1       -0.2623
     10  C         23.5860   14.4580   19.9830 C.3     1  UNL1        0.0450
     11  C         23.2780   13.1660   19.2320 C.ar    1  UNL1       -0.0283
     12  C         22.8270   13.1480   17.9100 C.ar    1  UNL1       -0.0570
     13  C         22.7860   11.8550   17.2340 C.ar    1  UNL1       -0.0601
     14  C         23.0850   10.6740   17.9070 C.ar    1  UNL1       -0.0434
     15  C         23.3870   10.7270   19.2860 C.ar    1  UNL1        0.0413
     16  C         23.5270   11.9570   19.9050 C.ar    1  UNL1       -0.0387
     17 CL         23.6630    9.3180   20.2940 Cl      1  UNL1       -0.0835
     18  C         21.6810   15.9460   20.6380 C.2     1  UNL1        0.2417
     19  O         20.7900   16.2740   21.4090 O.2     1  UNL1       -0.2732
     20  C         21.6510   16.6260   19.2010 C.3     1  UNL1        0.1204
     21  N         20.3290   17.1900   18.8840 N.ar    1  UNL1       -0.2351
     22  N         20.0800   18.5080   18.8880 N.ar    1  UNL1       -0.0641
     23  N         18.8630   18.7850   18.4740 N.ar    1  UNL1       -0.1295
     24  C         18.3200   17.6520   18.0630 C.ar    1  UNL1        0.1127
     25  C         17.0800   17.4490   17.5230 C.ar    1  UNL1       -0.0324
     26  C         16.8440   16.1680   17.0110 C.ar    1  UNL1       -0.0596
     27  C         17.7720   15.1190   17.2070 C.ar    1  UNL1       -0.0596
     28  C         18.9880   15.3370   17.8960 C.ar    1  UNL1       -0.0345
     29  C         19.2080   16.6250   18.3580 C.ar    1  UNL1        0.0895
     30  C         22.4690   11.7190   25.6850 C.ar    1  UNL1        0.0194
     31  C         22.7220   12.1330   26.9760 C.ar    1  UNL1        0.0568
     32  N         22.6970   11.0510   27.7880 N.ar    1  UNL1       -0.1817
     33  N         22.4530   10.0080   26.9860 N.ar    1  UNL1       -0.2841
     34  C         22.4480   10.3410   25.6550 C.ar    1  UNL1        0.0300
     35  H         26.0890   15.2190   24.0950 H       1  UNL1        0.0660
     36  H         25.7300   16.8300   23.4640 H       1  UNL1        0.0660
     37  H         24.9180   16.2840   24.9240 H       1  UNL1        0.0660
     38  H         23.8770   14.0040   25.1980 H       1  UNL1        0.0661
     39  H         20.8470   11.4990   23.3810 H       1  UNL1        0.0624
     40  H         20.9390   12.9300   21.3480 H       1  UNL1        0.0637
     41  H         23.7720   15.2610   19.2590 H       1  UNL1        0.0518
     42  H         24.4760   14.3070   20.6050 H       1  UNL1        0.0518
     43  H         22.7030   14.0550   17.3260 H       1  UNL1        0.0621
     44  H         22.6280   11.7780   16.1630 H       1  UNL1        0.0618
     45  H         23.0250    9.6720   17.4930 H       1  UNL1        0.0632
     46  H         23.7640   12.0340   20.9620 H       1  UNL1        0.0635
     47  H         22.4030   17.3860   18.9580 H       1  UNL1        0.0606
     48  H         21.7410   15.8270   18.4550 H       1  UNL1        0.0606
     49  H         16.4170   18.2830   17.3140 H       1  UNL1        0.0640
     50  H         16.0310   15.8930   16.3450 H       1  UNL1        0.0618
     51  H         17.6210   14.1480   16.7460 H       1  UNL1        0.0618
     52  H         19.6580   14.4900   18.0150 H       1  UNL1        0.0639
     53  H         22.8030   13.1730   27.2610 H       1  UNL1        0.0854
     54  H         22.3000    9.6650   24.8240 H       1  UNL1        0.0830
     55  H         22.4010    9.0630   27.3360 H       1  UNL1        0.1882
@<TRIPOS>BOND
     1     1     2    1
     2     1    37    1
     3     1    36    1
     4     1    35    1
     5     2     3    1
     6     3     8   ar
     7     3     4   ar
     8     4     5   ar
     9     4    38    1
    10     5     6   ar
    11     5    30    1
    12     6     7   ar
    13     6    39    1
    14     7    40    1
    15     7     8   ar
    16     8     9    1
    17     9    18   am
    18     9    10    1
    19    10    41    1
    20    10    11    1
    21    10    42    1
    22    11    12   ar
    23    11    16   ar
    24    12    43    1
    25    12    13   ar
    26    13    44    1
    27    13    14   ar
    28    14    15   ar
    29    14    45    1
    30    15    16   ar
    31    15    17    1
    32    16    46    1
    33    18    19    2
    34    18    20    1
    35    20    21    1
    36    20    47    1
    37    20    48    1
    38    21    22   ar
    39    21    29   ar
    40    22    23   ar
    41    23    24   ar
    42    24    25   ar
    43    24    29   ar
    44    25    49    1
    45    25    26   ar
    46    26    50    1
    47    26    27   ar
    48    27    51    1
    49    27    28   ar
    50    28    29   ar
    51    28    52    1
    52    30    31   ar
    53    30    34   ar
    54    31    53    1
    55    31    32   ar
    56    32    33   ar
    57    33    34   ar
    58    33    55    1
    59    34    54    1
