@<TRIPOS>MOLECULE
/home/lqcapf-6/arquivos_joao/4D/Alinhamento/alinhadas1/Mol39_PAC_aligned.pdb
 50 54 0 0 0
SMALL
GASTEIGER

@<TRIPOS>ATOM
      1 CL         28.1990   20.4500   19.7460 Cl      1  UNL1       -0.0835
      2  C         26.8060   19.9950   18.8060 C.ar    1  UNL1        0.0413
      3  C         26.7790   20.4960   17.4680 C.ar    1  UNL1       -0.0434
      4  C         25.6820   20.2490   16.6720 C.ar    1  UNL1       -0.0601
      5  C         24.6470   19.5180   17.1140 C.ar    1  UNL1       -0.0570
      6  C         24.6800   19.0270   18.4730 C.ar    1  UNL1       -0.0283
      7  C         25.7720   19.2040   19.3360 C.ar    1  UNL1       -0.0387
      8  C         23.4410   18.2300   18.9640 C.3     1  UNL1        0.0450
      9  N         23.3910   16.7580   18.6180 N.am    1  UNL1       -0.2641
     10  C         22.3650   15.9760   19.0540 C.2     1  UNL1        0.2416
     11  O         22.3940   14.7910   18.7850 O.2     1  UNL1       -0.2732
     12  C         21.2560   16.6090   19.9150 C.3     1  UNL1        0.1204
     13  N         20.1990   17.2060   19.0320 N.ar    1  UNL1       -0.2351
     14  N         20.0900   18.5740   19.0100 N.ar    1  UNL1       -0.0641
     15  N         18.9670   18.8340   18.3660 N.ar    1  UNL1       -0.1295
     16  C         18.3460   17.6630   18.0640 C.ar    1  UNL1        0.1127
     17  C         17.1240   17.4430   17.4020 C.ar    1  UNL1       -0.0324
     18  C         16.8310   16.1100   16.9970 C.ar    1  UNL1       -0.0596
     19  C         17.7530   15.0860   17.2120 C.ar    1  UNL1       -0.0596
     20  C         18.9910   15.3160   17.8580 C.ar    1  UNL1       -0.0345
     21  C         19.1830   16.6010   18.3630 C.ar    1  UNL1        0.0895
     22  C         24.6480   16.1090   18.2880 C.ar    1  UNL1        0.0548
     23  C         25.5430   15.7090   19.2730 C.ar    1  UNL1       -0.0368
     24  C         26.8520   15.3310   18.9290 C.ar    1  UNL1       -0.0338
     25  C         27.1900   15.4040   17.5330 C.ar    1  UNL1        0.0740
     26  N         26.2500   15.6260   16.5710 N.ar    1  UNL1       -0.2530
     27  C         25.0350   15.9720   16.9570 C.ar    1  UNL1        0.0497
     28  C         28.5270   15.0450   17.0890 C.ar    1  UNL1        0.0375
     29  C         29.6800   15.1370   17.8030 C.ar    1  UNL1        0.0315
     30  N         30.6050   14.7230   16.8800 N.ar    1  UNL1       -0.2841
     31  N         30.0980   14.2390   15.7140 N.ar    1  UNL1       -0.1817
     32  C         28.8120   14.3870   15.8620 C.ar    1  UNL1        0.0583
     33  H         27.6280   21.0300   17.0520 H       1  UNL1        0.0632
     34  H         25.6080   20.7330   15.7010 H       1  UNL1        0.0618
     35  H         23.7090   19.5080   16.5670 H       1  UNL1        0.0621
     36  H         25.7910   18.9150   20.3830 H       1  UNL1        0.0635
     37  H         23.3590   18.1970   20.0580 H       1  UNL1        0.0518
     38  H         22.5440   18.6520   18.4950 H       1  UNL1        0.0518
     39  H         20.7760   15.7470   20.3940 H       1  UNL1        0.0606
     40  H         21.6850   17.4120   20.5270 H       1  UNL1        0.0606
     41  H         16.5400   18.3200   17.1370 H       1  UNL1        0.0640
     42  H         15.9280   15.7650   16.5020 H       1  UNL1        0.0618
     43  H         17.6740   14.1170   16.7270 H       1  UNL1        0.0618
     44  H         19.7250   14.5330   18.0190 H       1  UNL1        0.0639
     45  H         25.1810   15.8250   20.2900 H       1  UNL1        0.0637
     46  H         27.6340   15.0630   19.6320 H       1  UNL1        0.0639
     47  H         24.2250   16.0940   16.2390 H       1  UNL1        0.0849
     48  H         29.8660   15.5440   18.7880 H       1  UNL1        0.0830
     49  H         28.1850   14.0670   15.0400 H       1  UNL1        0.0854
     50  H         31.6100   14.6670   16.9680 H       1  UNL1        0.1882
@<TRIPOS>BOND
     1     1     2    1
     2     2     3   ar
     3     2     7   ar
     4     3     4   ar
     5     3    33    1
     6     4    34    1
     7     4     5   ar
     8     5    35    1
     9     5     6   ar
    10     6     8    1
    11     6     7   ar
    12     7    36    1
    13     8    38    1
    14     8     9    1
    15     8    37    1
    16     9    10   am
    17     9    22    1
    18    10    12    1
    19    10    11    2
    20    12    13    1
    21    12    40    1
    22    12    39    1
    23    13    14   ar
    24    13    21   ar
    25    14    15   ar
    26    15    16   ar
    27    16    17   ar
    28    16    21   ar
    29    17    41    1
    30    17    18   ar
    31    18    42    1
    32    18    19   ar
    33    19    43    1
    34    19    20   ar
    35    20    21   ar
    36    20    44    1
    37    22    27   ar
    38    22    23   ar
    39    23    45    1
    40    23    24   ar
    41    24    25   ar
    42    24    46    1
    43    25    26   ar
    44    25    28    1
    45    26    27   ar
    46    27    47    1
    47    28    32   ar
    48    28    29   ar
    49    29    30   ar
    50    29    48    1
    51    30    31   ar
    52    30    50    1
    53    31    32   ar
    54    32    49    1
