@<TRIPOS>MOLECULE
/home/lqcapf-6/arquivos_joao/4D/Alinhamento/alinhadas1/Mol37_PAC_aligned.pdb
 51 55 0 0 0
SMALL
GASTEIGER

@<TRIPOS>ATOM
      1  C         19.2650   16.6150   18.2170 C.ar    1  UNL1        0.0895
      2  C         18.3940   17.6340   18.0580 C.ar    1  UNL1        0.1127
      3  C         18.9470   15.3000   17.9670 C.ar    1  UNL1       -0.0345
      4  C         17.1000   17.4090   17.5180 C.ar    1  UNL1       -0.0324
      5  C         17.6590   15.0480   17.2550 C.ar    1  UNL1       -0.0596
      6  C         16.7920   16.1410   16.9830 C.ar    1  UNL1       -0.0596
      7  N         20.3700   17.2510   18.8230 N.ar    1  UNL1       -0.2351
      8  N         18.8770   18.8490   18.5120 N.ar    1  UNL1       -0.1295
      9  N         20.0800   18.5870   18.9710 N.ar    1  UNL1       -0.0641
     10  C         21.7120   16.8000   19.1390 C.3     1  UNL1        0.1204
     11  C         22.7520   16.8630   18.0380 C.2     1  UNL1        0.2416
     12  N         24.0490   16.3920   18.4180 N.am    1  UNL1       -0.2656
     13  O         22.4740   17.1480   16.8500 O.2     1  UNL1       -0.2732
     14  C         25.1390   16.2030   17.4800 C.3     1  UNL1        0.0449
     15  C         26.2130   12.5220   17.0630 C.ar    1  UNL1        0.0413
     16  C         25.6440   12.2000   15.8160 C.ar    1  UNL1       -0.0434
     17  C         26.0150   13.8230   17.6680 C.ar    1  UNL1       -0.0387
     18  C         24.9990   13.1710   15.0690 C.ar    1  UNL1       -0.0601
     19  C         25.3880   14.7900   16.9100 C.ar    1  UNL1       -0.0283
     20  C         24.9060   14.4360   15.6260 C.ar    1  UNL1       -0.0570
     21 CL         27.0700   11.3450   17.9890 Cl      1  UNL1       -0.0835
     22  C         24.3680   13.9740   21.2400 C.ar    1  UNL1       -0.0522
     23  C         25.0300   14.7320   22.1510 C.ar    1  UNL1       -0.0148
     24  C         23.9860   14.5580   19.9730 C.ar    1  UNL1       -0.0397
     25  C         25.2920   16.1010   21.8680 C.ar    1  UNL1       -0.0522
     26  C         24.3550   15.8730   19.6620 C.ar    1  UNL1        0.0367
     27  C         24.9240   16.7000   20.6440 C.ar    1  UNL1       -0.0397
     28  C         25.3640   14.2880   23.5540 C.ar    1  UNL1        0.0193
     29  C         24.6880   13.3130   24.2120 C.ar    1  UNL1        0.0300
     30  C         26.3210   14.8690   24.3540 C.ar    1  UNL1        0.0568
     31  N         25.4590   13.2550   25.3830 N.ar    1  UNL1       -0.2841
     32  N         26.4030   14.1980   25.5010 N.ar    1  UNL1       -0.1817
     33  H         19.6610   14.5170   18.2040 H       1  UNL1        0.0639
     34  H         16.3750   18.2110   17.4140 H       1  UNL1        0.0640
     35  H         17.4250   14.0940   16.7930 H       1  UNL1        0.0618
     36  H         15.8650   15.9230   16.4600 H       1  UNL1        0.0618
     37  H         22.0320   17.5200   19.9030 H       1  UNL1        0.0606
     38  H         21.6350   15.8420   19.6670 H       1  UNL1        0.0606
     39  H         24.9180   16.7550   16.5590 H       1  UNL1        0.0518
     40  H         26.1060   16.5450   17.8680 H       1  UNL1        0.0518
     41  H         25.7250   11.2060   15.3860 H       1  UNL1        0.0632
     42  H         26.3920   13.9980   18.6710 H       1  UNL1        0.0635
     43  H         24.5330   13.0520   14.0950 H       1  UNL1        0.0618
     44  H         24.4470   15.1500   14.9470 H       1  UNL1        0.0621
     45  H         24.0860   12.9630   21.5210 H       1  UNL1        0.0624
     46  H         23.4870   14.0010   19.1860 H       1  UNL1        0.0636
     47  H         25.7030   16.7760   22.6110 H       1  UNL1        0.0624
     48  H         25.0990   17.7630   20.5090 H       1  UNL1        0.0636
     49  H         23.8850   12.6600   23.8980 H       1  UNL1        0.0830
     50  H         26.8870   15.7760   24.1880 H       1  UNL1        0.0854
     51  H         25.0670   12.6870   26.1210 H       1  UNL1        0.1882
@<TRIPOS>BOND
     1     1     7   ar
     2     1     2   ar
     3     1     3   ar
     4     2     8   ar
     5     2     4   ar
     6     3    33    1
     7     3     5   ar
     8     4    34    1
     9     4     6   ar
    10     5     6   ar
    11     5    35    1
    12     6    36    1
    13     7     9   ar
    14     7    10    1
    15     8     9   ar
    16    10    37    1
    17    10    11    1
    18    10    38    1
    19    11    12   am
    20    11    13    2
    21    12    14    1
    22    12    26    1
    23    14    40    1
    24    14    39    1
    25    14    19    1
    26    15    17   ar
    27    15    21    1
    28    15    16   ar
    29    16    18   ar
    30    16    41    1
    31    17    19   ar
    32    17    42    1
    33    18    20   ar
    34    18    43    1
    35    19    20   ar
    36    20    44    1
    37    22    23   ar
    38    22    24   ar
    39    22    45    1
    40    23    25   ar
    41    23    28    1
    42    24    26   ar
    43    24    46    1
    44    25    47    1
    45    25    27   ar
    46    26    27   ar
    47    27    48    1
    48    28    30   ar
    49    28    29   ar
    50    29    31   ar
    51    29    49    1
    52    30    50    1
    53    30    32   ar
    54    31    32   ar
    55    31    51    1
