@<TRIPOS>MOLECULE
/home/lqcapf-6/arquivos_joao/4D/Alinhamento/alinhadas1/Mol32_PAC_aligned.pdb
 53 57 0 0 0
SMALL
GASTEIGER

@<TRIPOS>ATOM
      1 CL         23.8990   11.6920   22.7950 Cl      1  UNL1       -0.0835
      2  C         23.8340   12.5880   21.2740 C.ar    1  UNL1        0.0427
      3  C         23.3490   11.9010   20.2010 C.ar    1  UNL1       -0.0250
      4  C         23.2130   12.5040   18.9370 C.ar    1  UNL1        0.0427
      5  C         23.6920   13.8140   18.7590 C.ar    1  UNL1       -0.0386
      6  C         24.0900   14.6140   19.8850 C.ar    1  UNL1       -0.0270
      7  C         24.0740   14.0060   21.1870 C.ar    1  UNL1       -0.0386
      8  C         24.4900   16.1000   19.6920 C.3     1  UNL1        0.0449
      9  N         24.0860   16.7020   18.4210 N.am    1  UNL1       -0.2656
     10  C         22.7340   16.8800   18.1180 C.2     1  UNL1        0.2416
     11  O         22.3690   17.2360   16.9920 O.2     1  UNL1       -0.2732
     12  C         21.6200   16.5940   19.1980 C.3     1  UNL1        0.1204
     13  N         20.2990   17.2100   18.9690 N.ar    1  UNL1       -0.2351
     14  N         20.0850   18.5810   18.9870 N.ar    1  UNL1       -0.0641
     15  N         18.9160   18.8090   18.3920 N.ar    1  UNL1       -0.1295
     16  C         18.3340   17.6660   18.0450 C.ar    1  UNL1        0.1127
     17  C         17.0940   17.4350   17.4950 C.ar    1  UNL1       -0.0324
     18  C         16.8390   16.1050   16.9910 C.ar    1  UNL1       -0.0596
     19  C         17.7540   15.0860   17.2210 C.ar    1  UNL1       -0.0596
     20  C         18.9250   15.2910   17.9320 C.ar    1  UNL1       -0.0345
     21  C         19.2370   16.6490   18.2700 C.ar    1  UNL1        0.0895
     22  C         25.1870   17.0970   17.5200 C.ar    1  UNL1        0.0367
     23  C         26.1830   17.9190   18.0210 C.ar    1  UNL1       -0.0397
     24  C         27.2100   18.3970   17.1910 C.ar    1  UNL1       -0.0522
     25  C         27.3580   17.9360   15.8720 C.ar    1  UNL1       -0.0163
     26  C         26.3210   17.1100   15.3350 C.ar    1  UNL1       -0.0522
     27  C         25.2010   16.7580   16.1550 C.ar    1  UNL1       -0.0397
     28  C         28.4970   18.2620   15.0120 C.ar    1  UNL1        0.0002
     29  C         29.7230   18.6240   15.6050 C.ar    1  UNL1       -0.0512
     30  C         30.8660   18.9830   14.7930 C.ar    1  UNL1       -0.0430
     31  C         30.6480   19.0590   13.4000 C.ar    1  UNL1        0.0276
     32  N         29.4510   18.8200   12.8780 N.ar    1  UNL1       -0.2627
     33  C         28.4310   18.4330   13.6230 C.ar    1  UNL1        0.0352
     34 CL         22.2740   11.7860   17.6450 Cl      1  UNL1       -0.0835
     35  H         23.2410   10.8250   20.2980 H       1  UNL1        0.0647
     36  H         23.5690   14.2430   17.7680 H       1  UNL1        0.0635
     37  H         24.3290   14.6430   22.0290 H       1  UNL1        0.0635
     38  H         24.0800   16.6310   20.5580 H       1  UNL1        0.0518
     39  H         25.5810   16.1330   19.8110 H       1  UNL1        0.0518
     40  H         21.4880   15.5330   19.4400 H       1  UNL1        0.0606
     41  H         21.9710   17.1320   20.0870 H       1  UNL1        0.0606
     42  H         16.4770   18.3190   17.3650 H       1  UNL1        0.0640
     43  H         15.8980   15.9710   16.4640 H       1  UNL1        0.0618
     44  H         17.5940   14.1210   16.7490 H       1  UNL1        0.0618
     45  H         19.5310   14.4280   18.1880 H       1  UNL1        0.0639
     46  H         26.1710   18.1430   19.0850 H       1  UNL1        0.0636
     47  H         27.8380   19.1940   17.5790 H       1  UNL1        0.0624
     48  H         26.3850   16.7640   14.3080 H       1  UNL1        0.0624
     49  H         24.4540   16.0830   15.7480 H       1  UNL1        0.0636
     50  H         29.8180   18.6280   16.6870 H       1  UNL1        0.0625
     51  H         31.8490   19.1050   15.2350 H       1  UNL1        0.0633
     52  H         31.4900   19.3250   12.7610 H       1  UNL1        0.0829
     53  H         27.4560   18.2630   13.1660 H       1  UNL1        0.0836
@<TRIPOS>BOND
     1     1     2    1
     2     2     3   ar
     3     2     7   ar
     4     3     4   ar
     5     3    35    1
     6     4    34    1
     7     4     5   ar
     8     5    36    1
     9     5     6   ar
    10     6     8    1
    11     6     7   ar
    12     7    37    1
    13     8     9    1
    14     8    39    1
    15     8    38    1
    16     9    22    1
    17     9    10   am
    18    10    11    2
    19    10    12    1
    20    12    13    1
    21    12    40    1
    22    12    41    1
    23    13    21   ar
    24    13    14   ar
    25    14    15   ar
    26    15    16   ar
    27    16    17   ar
    28    16    21   ar
    29    17    18   ar
    30    17    42    1
    31    18    43    1
    32    18    19   ar
    33    19    44    1
    34    19    20   ar
    35    20    21   ar
    36    20    45    1
    37    22    27   ar
    38    22    23   ar
    39    23    24   ar
    40    23    46    1
    41    24    25   ar
    42    24    47    1
    43    25    28    1
    44    25    26   ar
    45    26    48    1
    46    26    27   ar
    47    27    49    1
    48    28    33   ar
    49    28    29   ar
    50    29    30   ar
    51    29    50    1
    52    30    31   ar
    53    30    51    1
    54    31    52    1
    55    31    32   ar
    56    32    33   ar
    57    33    53    1
