@<TRIPOS>MOLECULE
/home/lqcapf-6/arquivos_joao/4D/Alinhamento/alinhadas1/Mol36_PAC_aligned.pdb
 51 55 0 0 0
SMALL
GASTEIGER

@<TRIPOS>ATOM
      1 CL         25.8040   10.3610   16.2800 Cl      1  UNL1       -0.0835
      2  C         26.0920   11.8660   17.1380 C.ar    1  UNL1        0.0413
      3  C         27.4590   12.3210   17.3910 C.ar    1  UNL1       -0.0434
      4  C         27.6070   13.5920   17.9930 C.ar    1  UNL1       -0.0601
      5  C         26.5140   14.3800   18.3450 C.ar    1  UNL1       -0.0570
      6  C         25.1690   13.9190   18.2580 C.ar    1  UNL1       -0.0283
      7  C         25.0130   12.6460   17.6140 C.ar    1  UNL1       -0.0387
      8  C         24.0090   14.7550   18.7470 C.3     1  UNL1        0.0449
      9  N         23.7140   15.8970   17.8460 N.am    1  UNL1       -0.2656
     10  C         22.7180   16.8340   18.1570 C.2     1  UNL1        0.2416
     11  O         22.7100   17.9300   17.5630 O.2     1  UNL1       -0.2732
     12  C         21.5800   16.4910   19.1220 C.3     1  UNL1        0.1204
     13  N         20.3000   17.2160   18.8350 N.ar    1  UNL1       -0.2351
     14  N         20.1200   18.5580   18.9030 N.ar    1  UNL1       -0.0641
     15  N         18.8840   18.8380   18.5590 N.ar    1  UNL1       -0.1295
     16  C         18.3710   17.6890   18.0610 C.ar    1  UNL1        0.1127
     17  C         17.1250   17.4250   17.3940 C.ar    1  UNL1       -0.0324
     18  C         16.8240   16.1040   17.0310 C.ar    1  UNL1       -0.0596
     19  C         17.7010   15.0330   17.3100 C.ar    1  UNL1       -0.0596
     20  C         18.9110   15.3110   17.9700 C.ar    1  UNL1       -0.0345
     21  C         19.2470   16.6600   18.2390 C.ar    1  UNL1        0.0895
     22  C         24.4240   16.0850   16.6410 C.ar    1  UNL1        0.0367
     23  C         23.9610   15.5230   15.5580 C.ar    1  UNL1       -0.0397
     24  C         24.6750   15.8090   14.3270 C.ar    1  UNL1       -0.0522
     25  C         25.9090   16.5710   14.3540 C.ar    1  UNL1       -0.0148
     26  C         26.2380   17.1780   15.5580 C.ar    1  UNL1       -0.0522
     27  C         25.4850   16.9560   16.7100 C.ar    1  UNL1       -0.0397
     28  C         26.7720   16.8110   13.2030 C.ar    1  UNL1        0.0193
     29  C         27.0580   15.9520   12.2110 C.ar    1  UNL1        0.0300
     30  N         27.9540   16.6310   11.4430 N.ar    1  UNL1       -0.2841
     31  N         28.1500   17.8720   11.9130 N.ar    1  UNL1       -0.1817
     32  C         27.5380   17.9630   13.0580 C.ar    1  UNL1        0.0568
     33  H         28.2990   11.6830   17.1280 H       1  UNL1        0.0632
     34  H         28.5630   14.0500   18.2290 H       1  UNL1        0.0618
     35  H         26.6990   15.3240   18.8470 H       1  UNL1        0.0621
     36  H         24.0570   12.1480   17.4860 H       1  UNL1        0.0635
     37  H         23.1770   14.0410   18.7520 H       1  UNL1        0.0518
     38  H         24.1120   15.1810   19.7520 H       1  UNL1        0.0518
     39  H         21.3910   15.4310   18.9120 H       1  UNL1        0.0606
     40  H         21.8690   16.6870   20.1610 H       1  UNL1        0.0606
     41  H         16.4420   18.2300   17.1410 H       1  UNL1        0.0640
     42  H         15.7820   15.9050   16.7990 H       1  UNL1        0.0618
     43  H         17.3990   13.9960   17.1940 H       1  UNL1        0.0618
     44  H         19.5490   14.5070   18.3250 H       1  UNL1        0.0639
     45  H         23.0880   14.8790   15.5420 H       1  UNL1        0.0636
     46  H         24.2870   15.4050   13.3960 H       1  UNL1        0.0624
     47  H         27.1590   17.7270   15.7330 H       1  UNL1        0.0624
     48  H         25.7020   17.4580   17.6480 H       1  UNL1        0.0636
     49  H         26.6950   14.9590   11.9820 H       1  UNL1        0.0830
     50  H         27.6120   18.8720   13.6390 H       1  UNL1        0.0854
     51  H         28.5380   16.2410   10.7160 H       1  UNL1        0.1882
@<TRIPOS>BOND
     1     1     2    1
     2     2     7   ar
     3     2     3   ar
     4     3     4   ar
     5     3    33    1
     6     4     5   ar
     7     4    34    1
     8     5    35    1
     9     5     6   ar
    10     6     8    1
    11     6     7   ar
    12     7    36    1
    13     8     9    1
    14     8    38    1
    15     8    37    1
    16     9    10   am
    17     9    22    1
    18    10    11    2
    19    10    12    1
    20    12    13    1
    21    12    40    1
    22    12    39    1
    23    13    14   ar
    24    13    21   ar
    25    14    15   ar
    26    15    16   ar
    27    16    17   ar
    28    16    21   ar
    29    17    41    1
    30    17    18   ar
    31    18    42    1
    32    18    19   ar
    33    19    20   ar
    34    19    43    1
    35    20    21   ar
    36    20    44    1
    37    22    27   ar
    38    22    23   ar
    39    23    24   ar
    40    23    45    1
    41    24    25   ar
    42    24    46    1
    43    25    28    1
    44    25    26   ar
    45    26    47    1
    46    26    27   ar
    47    27    48    1
    48    28    32   ar
    49    28    29   ar
    50    29    30   ar
    51    29    49    1
    52    30    31   ar
    53    30    51    1
    54    31    32   ar
    55    32    50    1
