@<TRIPOS>MOLECULE
/home/lqcapf-6/arquivos_joao/4D/Alinhamento/alinhadas1/Mol35_PAC_aligned.pdb
 54 58 0 0 0
SMALL
GASTEIGER

@<TRIPOS>ATOM
      1 CL         23.1260   10.1310   20.3650 Cl      1  UNL1       -0.0835
      2  C         23.9130   11.5500   20.8880 C.ar    1  UNL1        0.0413
      3  C         24.9740   11.4010   21.7760 C.ar    1  UNL1       -0.0434
      4  C         25.8250   12.4870   22.0790 C.ar    1  UNL1       -0.0601
      5  C         25.5400   13.7980   21.7340 C.ar    1  UNL1       -0.0570
      6  C         24.4480   13.9460   20.8090 C.ar    1  UNL1       -0.0283
      7  C         23.6530   12.8340   20.3640 C.ar    1  UNL1       -0.0387
      8  C         23.9460   15.3380   20.5870 C.3     1  UNL1        0.0449
      9  N         23.7280   15.6910   19.1860 N.am    1  UNL1       -0.2656
     10  C         22.6270   16.5210   18.7420 C.2     1  UNL1        0.2416
     11  O         22.6000   16.9920   17.6510 O.2     1  UNL1       -0.2732
     12  C         21.3600   16.4810   19.5920 C.3     1  UNL1        0.1204
     13  N         20.2500   17.1820   18.9540 N.ar    1  UNL1       -0.2351
     14  N         20.0120   18.5890   19.0950 N.ar    1  UNL1       -0.0641
     15  N         18.9540   18.8530   18.3850 N.ar    1  UNL1       -0.1295
     16  C         18.4500   17.6680   17.9440 C.ar    1  UNL1        0.1127
     17  C         17.1890   17.4510   17.4070 C.ar    1  UNL1       -0.0324
     18  C         16.7800   16.1440   17.0170 C.ar    1  UNL1       -0.0596
     19  C         17.6650   15.0280   17.3380 C.ar    1  UNL1       -0.0596
     20  C         18.9280   15.2820   17.9400 C.ar    1  UNL1       -0.0345
     21  C         19.2540   16.6360   18.2230 C.ar    1  UNL1        0.0895
     22  C         24.7340   15.2670   18.2630 C.ar    1  UNL1        0.0367
     23  C         24.3450   14.5040   17.1220 C.ar    1  UNL1       -0.0400
     24  C         25.2860   13.7410   16.4450 C.ar    1  UNL1       -0.0555
     25  C         26.6630   13.9480   16.7150 C.ar    1  UNL1       -0.0270
     26  C         27.1060   14.7950   17.7940 C.ar    1  UNL1       -0.0555
     27  C         26.0860   15.5240   18.4730 C.ar    1  UNL1       -0.0400
     28  C         27.6980   13.2710   15.9860 C.3     1  UNL1        0.1112
     29  C         27.4290   13.3390   14.6140 C.2     1  UNL1       -0.0654
     30  C         28.2250   12.5650   13.7710 C.2     1  UNL1       -0.0645
     31  C         29.3580   11.8690   14.2270 C.3     1  UNL1        0.0635
     32  N         29.7050   11.9040   15.5850 N.am    1  UNL1       -0.3059
     33  C         28.8110   12.4590   16.5190 C.2     1  UNL1        0.2295
     34  O         28.8770   12.2980   17.7510 O.2     1  UNL1       -0.2744
     35  H         25.2600   10.4060   22.1050 H       1  UNL1        0.0632
     36  H         26.6760   12.2770   22.7200 H       1  UNL1        0.0618
     37  H         26.1950   14.6390   21.9400 H       1  UNL1        0.0621
     38  H         22.8130   12.9320   19.6820 H       1  UNL1        0.0635
     39  H         23.0120   15.3570   21.1600 H       1  UNL1        0.0518
     40  H         24.6020   16.1020   21.0210 H       1  UNL1        0.0518
     41  H         21.1220   15.4160   19.7000 H       1  UNL1        0.0606
     42  H         21.5780   16.8930   20.5860 H       1  UNL1        0.0606
     43  H         16.5680   18.3370   17.3060 H       1  UNL1        0.0640
     44  H         15.7950   15.9690   16.5950 H       1  UNL1        0.0618
     45  H         17.3280   14.0350   17.0570 H       1  UNL1        0.0618
     46  H         19.6760   14.5070   18.0780 H       1  UNL1        0.0639
     47  H         23.2920   14.2530   17.0260 H       1  UNL1        0.0636
     48  H         24.9540   13.0310   15.6940 H       1  UNL1        0.0621
     49  H         28.1690   14.9630   17.9420 H       1  UNL1        0.0621
     50  H         26.4600   16.2500   19.1890 H       1  UNL1        0.0636
     51  H         26.6600   13.9940   14.2250 H       1  UNL1        0.0584
     52  H         27.9450   12.6050   12.7240 H       1  UNL1        0.0588
     53  H         30.0720   11.3470   13.6040 H       1  UNL1        0.0564
     54  H         30.4650   11.3500   15.9620 H       1  UNL1        0.1494
@<TRIPOS>BOND
     1     1     2    1
     2     2     3   ar
     3     2     7   ar
     4     3     4   ar
     5     3    35    1
     6     4     5   ar
     7     4    36    1
     8     5    37    1
     9     5     6   ar
    10     6     8    1
    11     6     7   ar
    12     7    38    1
    13     8    40    1
    14     8    39    1
    15     8     9    1
    16     9    10   am
    17     9    22    1
    18    10    12    1
    19    10    11    2
    20    12    42    1
    21    12    13    1
    22    12    41    1
    23    13    14   ar
    24    13    21   ar
    25    14    15   ar
    26    15    16   ar
    27    16    21   ar
    28    16    17   ar
    29    17    43    1
    30    17    18   ar
    31    18    19   ar
    32    18    44    1
    33    19    20   ar
    34    19    45    1
    35    20    21   ar
    36    20    46    1
    37    22    27   ar
    38    22    23   ar
    39    23    47    1
    40    23    24   ar
    41    24    25   ar
    42    24    48    1
    43    25    26   ar
    44    25    28    1
    45    26    27   ar
    46    26    49    1
    47    27    50    1
    48    28    33    1
    49    28    29    1
    50    29    51    1
    51    29    30    2
    52    30    31    1
    53    30    52    1
    54    31    32    1
    55    31    53    1
    56    32    33   am
    57    32    54    1
    58    33    34    2
