@<TRIPOS>MOLECULE
/home/lqcapf-6/arquivos_joao/4D/Alinhamento/alinhadas1/Mol31_PAC_aligned.pdb
 53 57 0 0 0
SMALL
GASTEIGER

@<TRIPOS>ATOM
      1  F         20.2790   11.6060   21.6630 F       1  UNL1       -0.2054
      2  C         21.5260   11.9960   21.5450 C.ar    1  UNL1        0.1251
      3  C         22.4990   11.2050   22.1250 C.ar    1  UNL1       -0.0081
      4  C         23.8130   11.6490   22.0910 C.ar    1  UNL1        0.0440
      5  C         24.1840   12.8330   21.4380 C.ar    1  UNL1       -0.0385
      6  C         23.1480   13.5390   20.7760 C.ar    1  UNL1       -0.0256
      7  C         21.8050   13.1920   20.8180 C.ar    1  UNL1       -0.0217
      8  C         23.6210   14.7260   20.0920 C.3     1  UNL1        0.0450
      9  N         23.2450   14.6910   18.6340 N.am    1  UNL1       -0.2656
     10  C         22.2540   15.5340   18.0900 C.2     1  UNL1        0.2416
     11  O         21.8480   15.4910   16.9280 O.2     1  UNL1       -0.2732
     12  C         21.6870   16.6190   19.0110 C.3     1  UNL1        0.1204
     13  N         20.3980   17.2410   18.6660 N.ar    1  UNL1       -0.2351
     14  N         20.0990   18.5910   18.9590 N.ar    1  UNL1       -0.0641
     15  N         18.8570   18.8100   18.5500 N.ar    1  UNL1       -0.1295
     16  C         18.2990   17.6190   18.1770 C.ar    1  UNL1        0.1127
     17  C         17.1040   17.4400   17.4910 C.ar    1  UNL1       -0.0324
     18  C         16.8260   16.1320   17.0330 C.ar    1  UNL1       -0.0596
     19  C         17.6920   15.0580   17.2550 C.ar    1  UNL1       -0.0596
     20  C         18.9700   15.3300   17.8630 C.ar    1  UNL1       -0.0345
     21  C         19.2390   16.6110   18.3100 C.ar    1  UNL1        0.0895
     22  C         23.7930   13.6650   17.9010 C.ar    1  UNL1        0.0367
     23  C         25.0540   13.8150   17.2910 C.ar    1  UNL1       -0.0397
     24  C         25.5660   12.7680   16.4880 C.ar    1  UNL1       -0.0522
     25  C         24.9310   11.4910   16.4010 C.ar    1  UNL1       -0.0163
     26  C         23.6320   11.3350   16.9720 C.ar    1  UNL1       -0.0522
     27  C         23.1020   12.4620   17.7120 C.ar    1  UNL1       -0.0397
     28  C         25.5640   10.3550   15.6530 C.ar    1  UNL1        0.0002
     29  C         26.3170   10.6480   14.4900 C.ar    1  UNL1       -0.0512
     30  C         26.7790    9.6300   13.6420 C.ar    1  UNL1       -0.0430
     31  C         26.5270    8.2780   14.0970 C.ar    1  UNL1        0.0276
     32  N         25.8080    8.0040   15.2390 N.ar    1  UNL1       -0.2627
     33  C         25.3810    8.9810   16.0070 C.ar    1  UNL1        0.0352
     34 CL         25.0160   10.8400   22.9940 Cl      1  UNL1       -0.0834
     35  H         22.3200   10.2900   22.6830 H       1  UNL1        0.0661
     36  H         25.2090   13.1700   21.3160 H       1  UNL1        0.0635
     37  H         21.0650   13.7790   20.2820 H       1  UNL1        0.0649
     38  H         23.3050   15.6310   20.6240 H       1  UNL1        0.0518
     39  H         24.7100   14.8610   20.0600 H       1  UNL1        0.0518
     40  H         21.5370   16.1130   19.9730 H       1  UNL1        0.0606
     41  H         22.3880   17.4560   19.1250 H       1  UNL1        0.0606
     42  H         16.3660   18.2060   17.2720 H       1  UNL1        0.0640
     43  H         15.8770   15.9800   16.5260 H       1  UNL1        0.0618
     44  H         17.4150   14.0430   16.9840 H       1  UNL1        0.0618
     45  H         19.6400   14.4790   17.9360 H       1  UNL1        0.0639
     46  H         25.7010   14.6750   17.4390 H       1  UNL1        0.0636
     47  H         26.5230   12.9630   16.0110 H       1  UNL1        0.0624
     48  H         23.1300   10.3740   16.9090 H       1  UNL1        0.0624
     49  H         22.0840   12.3710   18.0800 H       1  UNL1        0.0636
     50  H         26.4300   11.6760   14.1590 H       1  UNL1        0.0625
     51  H         27.0890    9.7300   12.6060 H       1  UNL1        0.0633
     52  H         26.5990    7.4330   13.4130 H       1  UNL1        0.0829
     53  H         24.8430    8.7330   16.9200 H       1  UNL1        0.0836
@<TRIPOS>BOND
     1     1     2    1
     2     2     7   ar
     3     2     3   ar
     4     3    35    1
     5     3     4   ar
     6     4     5   ar
     7     4    34    1
     8     5     6   ar
     9     5    36    1
    10     6     7   ar
    11     6     8    1
    12     7    37    1
    13     8     9    1
    14     8    38    1
    15     8    39    1
    16     9    10   am
    17     9    22    1
    18    10    11    2
    19    10    12    1
    20    12    13    1
    21    12    40    1
    22    12    41    1
    23    13    21   ar
    24    13    14   ar
    25    14    15   ar
    26    15    16   ar
    27    16    17   ar
    28    16    21   ar
    29    17    42    1
    30    17    18   ar
    31    18    43    1
    32    18    19   ar
    33    19    44    1
    34    19    20   ar
    35    20    21   ar
    36    20    45    1
    37    22    27   ar
    38    22    23   ar
    39    23    24   ar
    40    23    46    1
    41    24    25   ar
    42    24    47    1
    43    25    26   ar
    44    25    28    1
    45    26    48    1
    46    26    27   ar
    47    27    49    1
    48    28    33   ar
    49    28    29   ar
    50    29    50    1
    51    29    30   ar
    52    30    31   ar
    53    30    51    1
    54    31    32   ar
    55    31    52    1
    56    32    33   ar
    57    33    53    1
