@<TRIPOS>MOLECULE
/home/lqcapf-6/arquivos_joao/4D/Alinhamento/alinhadas1/Mol34_PAC_aligned.pdb
 52 56 0 0 0
SMALL
GASTEIGER

@<TRIPOS>ATOM
      1 CL         24.6600   10.1140   18.8470 Cl      1  UNL1       -0.0820
      2  C         25.3120   11.7610   19.0030 C.ar    1  UNL1        0.0593
      3  C         26.6950   12.0080   18.9460 C.ar    1  UNL1        0.0459
      4  N         27.3120   13.2000   19.2120 N.ar    1  UNL1       -0.2615
      5  C         26.4740   14.2400   19.3700 C.ar    1  UNL1        0.0323
      6  C         25.0900   14.1580   19.4380 C.ar    1  UNL1       -0.0102
      7  C         24.4930   12.8860   19.2940 C.ar    1  UNL1       -0.0358
      8  C         24.2180   15.3870   19.6810 C.3     1  UNL1        0.0463
      9  N         23.9740   16.2250   18.4360 N.am    1  UNL1       -0.2655
     10  C         22.7260   16.6250   18.1490 C.2     1  UNL1        0.2416
     11  O         22.5140   17.1270   17.0710 O.2     1  UNL1       -0.2732
     12  C         21.5690   16.4330   19.1610 C.3     1  UNL1        0.1204
     13  N         20.3170   17.1550   18.8790 N.ar    1  UNL1       -0.2351
     14  N         20.0270   18.4860   18.9980 N.ar    1  UNL1       -0.0641
     15  N         18.8350   18.7880   18.4180 N.ar    1  UNL1       -0.1295
     16  C         18.4150   17.6560   17.9630 C.ar    1  UNL1        0.1127
     17  C         17.1540   17.5250   17.3920 C.ar    1  UNL1       -0.0324
     18  C         16.8190   16.2040   17.1010 C.ar    1  UNL1       -0.0596
     19  C         17.7010   15.0930   17.3100 C.ar    1  UNL1       -0.0596
     20  C         18.9590   15.2970   17.9560 C.ar    1  UNL1       -0.0345
     21  C         19.2560   16.6290   18.2860 C.ar    1  UNL1        0.0895
     22  C         25.1140   16.7210   17.8080 C.ar    1  UNL1        0.0367
     23  C         25.2760   16.5060   16.3910 C.ar    1  UNL1       -0.0397
     24  C         26.3510   17.1070   15.6620 C.ar    1  UNL1       -0.0522
     25  C         27.3140   17.9310   16.3260 C.ar    1  UNL1       -0.0163
     26  C         27.0780   18.2690   17.7340 C.ar    1  UNL1       -0.0522
     27  C         26.0090   17.6060   18.4560 C.ar    1  UNL1       -0.0397
     28  C         28.4400   18.4440   15.5190 C.ar    1  UNL1        0.0002
     29  C         28.3820   18.7140   14.1360 C.ar    1  UNL1       -0.0512
     30  C         29.5550   19.1930   13.4530 C.ar    1  UNL1       -0.0430
     31  C         30.7970   19.3930   14.1420 C.ar    1  UNL1        0.0276
     32  N         30.7950   19.2550   15.5220 N.ar    1  UNL1       -0.2627
     33  C         29.6870   18.8090   16.1230 C.ar    1  UNL1        0.0352
     34  H         27.3420   11.1680   18.6980 H       1  UNL1        0.0844
     35  H         26.9880   15.1720   19.5970 H       1  UNL1        0.0833
     36  H         23.4300   12.7340   19.4590 H       1  UNL1        0.0636
     37  H         23.3040   14.9320   20.0800 H       1  UNL1        0.0518
     38  H         24.6120   15.9380   20.5440 H       1  UNL1        0.0518
     39  H         21.3940   15.3540   19.2500 H       1  UNL1        0.0606
     40  H         22.0490   16.7370   20.0990 H       1  UNL1        0.0606
     41  H         16.3870   18.2810   17.5350 H       1  UNL1        0.0640
     42  H         15.7960   15.9930   16.8030 H       1  UNL1        0.0618
     43  H         17.3020   14.0950   17.1590 H       1  UNL1        0.0618
     44  H         19.6120   14.4550   18.1650 H       1  UNL1        0.0639
     45  H         24.4630   16.0140   15.8670 H       1  UNL1        0.0636
     46  H         26.4140   16.7770   14.6300 H       1  UNL1        0.0624
     47  H         27.7190   18.9690   18.2630 H       1  UNL1        0.0624
     48  H         25.7880   17.8900   19.4810 H       1  UNL1        0.0636
     49  H         27.5070   18.4660   13.5430 H       1  UNL1        0.0625
     50  H         29.3980   19.4250   12.4040 H       1  UNL1        0.0633
     51  H         31.6700   19.8240   13.6570 H       1  UNL1        0.0829
     52  H         29.7850   18.6320   17.1940 H       1  UNL1        0.0836
@<TRIPOS>BOND
     1     1     2    1
     2     2     7   ar
     3     2     3   ar
     4     3     4   ar
     5     3    34    1
     6     4     5   ar
     7     5    35    1
     8     5     6   ar
     9     6     8    1
    10     6     7   ar
    11     7    36    1
    12     8     9    1
    13     8    38    1
    14     8    37    1
    15     9    10   am
    16     9    22    1
    17    10    11    2
    18    10    12    1
    19    12    13    1
    20    12    40    1
    21    12    39    1
    22    13    14   ar
    23    13    21   ar
    24    14    15   ar
    25    15    16   ar
    26    16    17   ar
    27    16    21   ar
    28    17    41    1
    29    17    18   ar
    30    18    42    1
    31    18    19   ar
    32    19    20   ar
    33    19    43    1
    34    20    21   ar
    35    20    44    1
    36    22    27   ar
    37    22    23   ar
    38    23    24   ar
    39    23    45    1
    40    24    25   ar
    41    24    46    1
    42    25    28    1
    43    25    26   ar
    44    26    47    1
    45    26    27   ar
    46    27    48    1
    47    28    29   ar
    48    28    33   ar
    49    29    30   ar
    50    29    49    1
    51    30    50    1
    52    30    31   ar
    53    31    51    1
    54    31    32   ar
    55    32    33   ar
    56    33    52    1
