@<TRIPOS>MOLECULE
/home/lqcapf-6/arquivos_joao/4D/Alinhamento/alinhadas1/Mol33_PAC_aligned.pdb
 56 60 0 0 0
SMALL
GASTEIGER

@<TRIPOS>ATOM
      1  C         27.6170   19.3840   17.1060 C.3     1  UNL1       -0.0397
      2  C         26.2950   19.5980   16.4710 C.ar    1  UNL1       -0.0488
      3  C         26.1860   20.2290   15.2210 C.ar    1  UNL1       -0.0405
      4  C         24.8750   20.4560   14.6380 C.ar    1  UNL1        0.0415
      5  C         23.7260   19.9540   15.2520 C.ar    1  UNL1       -0.0387
      6  C         23.8910   19.2470   16.4290 C.ar    1  UNL1       -0.0281
      7  C         25.1080   19.0880   17.0670 C.ar    1  UNL1       -0.0541
      8  C         22.7590   18.4880   17.0430 C.3     1  UNL1        0.0449
      9  N         22.9250   16.9890   16.9710 N.am    1  UNL1       -0.2656
     10  C         22.3770   16.0960   17.9320 C.2     1  UNL1        0.2416
     11  O         22.3770   14.9080   17.7610 O.2     1  UNL1       -0.2732
     12  C         21.6130   16.6930   19.1330 C.3     1  UNL1        0.1204
     13  N         20.3020   17.2170   18.7740 N.ar    1  UNL1       -0.2351
     14  N         20.0990   18.5400   18.9610 N.ar    1  UNL1       -0.0641
     15  N         18.9030   18.8440   18.5560 N.ar    1  UNL1       -0.1295
     16  C         18.3880   17.6590   18.0420 C.ar    1  UNL1        0.1127
     17  C         17.0810   17.4200   17.4560 C.ar    1  UNL1       -0.0324
     18  C         16.8110   16.0980   16.9990 C.ar    1  UNL1       -0.0596
     19  C         17.7090   15.0950   17.2990 C.ar    1  UNL1       -0.0596
     20  C         18.9520   15.3230   17.9640 C.ar    1  UNL1       -0.0345
     21  C         19.2390   16.6390   18.2530 C.ar    1  UNL1        0.0895
     22  C         23.5140   16.3710   15.8620 C.ar    1  UNL1        0.0367
     23  C         23.0640   16.5680   14.5410 C.ar    1  UNL1       -0.0397
     24  C         23.8500   16.0930   13.4580 C.ar    1  UNL1       -0.0522
     25  C         25.0180   15.3140   13.6170 C.ar    1  UNL1       -0.0163
     26  C         25.4720   15.1740   14.9310 C.ar    1  UNL1       -0.0522
     27  C         24.7280   15.6410   16.0520 C.ar    1  UNL1       -0.0397
     28  C         25.7970   14.7360   12.4500 C.ar    1  UNL1        0.0002
     29  C         25.0520   13.9740   11.5580 C.ar    1  UNL1       -0.0512
     30  C         25.7450   13.3610   10.5160 C.ar    1  UNL1       -0.0430
     31  C         27.1230   13.7030   10.3080 C.ar    1  UNL1        0.0276
     32  N         27.8250   14.4400   11.2020 N.ar    1  UNL1       -0.2627
     33  C         27.1760   14.9910   12.2050 C.ar    1  UNL1        0.0352
     34 CL         24.6560   21.4050   13.2180 Cl      1  UNL1       -0.0835
     35  H         28.4040   19.0260   16.4320 H       1  UNL1        0.0278
     36  H         28.0680   20.3300   17.4260 H       1  UNL1        0.0278
     37  H         27.4710   18.7860   18.0140 H       1  UNL1        0.0278
     38  H         27.0470   20.6070   14.6770 H       1  UNL1        0.0635
     39  H         22.7000   19.9180   14.8970 H       1  UNL1        0.0635
     40  H         25.0610   18.6990   18.0790 H       1  UNL1        0.0623
     41  H         22.8020   18.6960   18.1190 H       1  UNL1        0.0518
     42  H         21.7590   18.7600   16.6830 H       1  UNL1        0.0518
     43  H         21.6330   15.8770   19.8670 H       1  UNL1        0.0606
     44  H         22.2590   17.4860   19.5250 H       1  UNL1        0.0606
     45  H         16.3720   18.1990   17.1970 H       1  UNL1        0.0640
     46  H         15.9160   15.7790   16.4720 H       1  UNL1        0.0618
     47  H         17.4180   14.0820   17.0380 H       1  UNL1        0.0618
     48  H         19.6380   14.5550   18.3110 H       1  UNL1        0.0639
     49  H         22.1160   17.0790   14.4020 H       1  UNL1        0.0636
     50  H         23.5190   16.3020   12.4450 H       1  UNL1        0.0624
     51  H         26.4260   14.7000   15.1430 H       1  UNL1        0.0624
     52  H         25.2400   15.5450   17.0050 H       1  UNL1        0.0636
     53  H         23.9950   13.8030   11.7430 H       1  UNL1        0.0625
     54  H         25.1700   12.9200    9.7060 H       1  UNL1        0.0633
     55  H         27.6820   13.5340    9.3900 H       1  UNL1        0.0829
     56  H         27.8130   15.5690   12.8730 H       1  UNL1        0.0836
@<TRIPOS>BOND
     1     1    36    1
     2     1    37    1
     3     1     2    1
     4     1    35    1
     5     2     3   ar
     6     2     7   ar
     7     3    38    1
     8     3     4   ar
     9     4    34    1
    10     4     5   ar
    11     5     6   ar
    12     5    39    1
    13     6     7   ar
    14     6     8    1
    15     7    40    1
    16     8    41    1
    17     8    42    1
    18     8     9    1
    19     9    10   am
    20     9    22    1
    21    10    12    1
    22    10    11    2
    23    12    44    1
    24    12    13    1
    25    12    43    1
    26    13    14   ar
    27    13    21   ar
    28    14    15   ar
    29    15    16   ar
    30    16    17   ar
    31    16    21   ar
    32    17    45    1
    33    17    18   ar
    34    18    46    1
    35    18    19   ar
    36    19    20   ar
    37    19    47    1
    38    20    21   ar
    39    20    48    1
    40    22    23   ar
    41    22    27   ar
    42    23    49    1
    43    23    24   ar
    44    24    50    1
    45    24    25   ar
    46    25    26   ar
    47    25    28    1
    48    26    27   ar
    49    26    51    1
    50    27    52    1
    51    28    33   ar
    52    28    29   ar
    53    29    53    1
    54    29    30   ar
    55    30    31   ar
    56    30    54    1
    57    31    32   ar
    58    31    55    1
    59    32    33   ar
    60    33    56    1
