@<TRIPOS>MOLECULE
/home/lqcapf-6/arquivos_joao/4D/Alinhamento/alinhadas1/Mol41_PAC_aligned.pdb
 51 55 0 0 0
SMALL
GASTEIGER

@<TRIPOS>ATOM
      1  C         19.2130   16.6620   18.2590 C.ar    1  UNL1        0.0895
      2  C         18.3610   17.6730   18.0170 C.ar    1  UNL1        0.1127
      3  C         18.9310   15.3270   17.9910 C.ar    1  UNL1       -0.0345
      4  C         17.1030   17.3990   17.4020 C.ar    1  UNL1       -0.0324
      5  C         17.7360   15.0300   17.2620 C.ar    1  UNL1       -0.0596
      6  C         16.8230   16.1120   17.0290 C.ar    1  UNL1       -0.0596
      7  N         20.2930   17.2290   18.8630 N.ar    1  UNL1       -0.2351
      8  N         18.8940   18.8350   18.5350 N.ar    1  UNL1       -0.1295
      9  N         20.1290   18.5660   18.9450 N.ar    1  UNL1       -0.0641
     10  C         21.5280   16.5420   19.3340 C.3     1  UNL1        0.1204
     11  C         22.4080   16.0040   18.1470 C.2     1  UNL1        0.2416
     12  N         23.2990   14.9590   18.4390 N.am    1  UNL1       -0.2656
     13  O         22.2120   16.4450   17.0450 O.2     1  UNL1       -0.2732
     14  C         23.9310   14.2950   17.2890 C.3     1  UNL1        0.0449
     15  C         21.5070   11.7870   15.7940 C.ar    1  UNL1        0.0413
     16  C         22.2100   10.6320   15.9480 C.ar    1  UNL1       -0.0434
     17  C         22.0640   12.9860   16.3220 C.ar    1  UNL1       -0.0387
     18  C         23.4470   10.5650   16.6160 C.ar    1  UNL1       -0.0601
     19  C         23.2580   12.9930   16.9490 C.ar    1  UNL1       -0.0283
     20  C         23.9610   11.7850   17.1550 C.ar    1  UNL1       -0.0570
     21 CL         19.8750   11.7380   15.1990 Cl      1  UNL1       -0.0835
     22  C         22.7250   12.8000   21.4340 C.ar    1  UNL1       -0.0508
     23  C         23.9410   13.0660   22.2170 C.ar    1  UNL1        0.0019
     24  C         22.5120   13.4560   20.2130 C.ar    1  UNL1       -0.0396
     25  C         24.7860   14.0820   21.7830 C.ar    1  UNL1       -0.0508
     26  C         23.4910   14.3670   19.7330 C.ar    1  UNL1        0.0367
     27  C         24.5960   14.7020   20.5070 C.ar    1  UNL1       -0.0396
     28  C         24.1090   12.4340   23.5580 C.ar    1  UNL1        0.0885
     29  C         24.3950   13.1630   24.7040 C.ar    1  UNL1        0.0290
     30  N         24.1300   11.1190   23.7900 N.ar    1  UNL1       -0.2360
     31  N         24.5710   12.2260   25.6750 N.ar    1  UNL1       -0.3503
     32  C         24.3710   11.0000   25.0850 C.ar    1  UNL1        0.0940
     33  H         19.6830   14.5470   18.0580 H       1  UNL1        0.0639
     34  H         16.4180   18.2410   17.3920 H       1  UNL1        0.0640
     35  H         17.5770   14.0460   16.8300 H       1  UNL1        0.0618
     36  H         15.9450   15.9860   16.4020 H       1  UNL1        0.0618
     37  H         22.1300   17.3190   19.8190 H       1  UNL1        0.0606
     38  H         21.3110   15.7460   20.0560 H       1  UNL1        0.0606
     39  H         24.0660   14.9450   16.4150 H       1  UNL1        0.0518
     40  H         24.9750   14.0590   17.5300 H       1  UNL1        0.0518
     41  H         21.6990    9.7260   15.6350 H       1  UNL1        0.0632
     42  H         21.5120   13.9170   16.2270 H       1  UNL1        0.0635
     43  H         24.0830    9.6860   16.6780 H       1  UNL1        0.0618
     44  H         24.8580   11.8140   17.7670 H       1  UNL1        0.0621
     45  H         21.9780   12.1500   21.8770 H       1  UNL1        0.0625
     46  H         21.6430   13.2780   19.5870 H       1  UNL1        0.0636
     47  H         25.6270   14.3350   22.4210 H       1  UNL1        0.0625
     48  H         25.2720   15.4670   20.1400 H       1  UNL1        0.0636
     49  H         24.5810   14.2120   24.8910 H       1  UNL1        0.0829
     50  H         24.7240   12.3640   26.6640 H       1  UNL1        0.1662
     51  H         24.5320   10.0490   25.5780 H       1  UNL1        0.1027
@<TRIPOS>BOND
     1     1     3   ar
     2     1     2   ar
     3     1     7   ar
     4     2     4   ar
     5     2     8   ar
     6     3     5   ar
     7     3    33    1
     8     4     6   ar
     9     4    34    1
    10     5    35    1
    11     5     6   ar
    12     6    36    1
    13     7    10    1
    14     7     9   ar
    15     8     9   ar
    16    10    11    1
    17    10    38    1
    18    10    37    1
    19    11    12   am
    20    11    13    2
    21    12    14    1
    22    12    26    1
    23    14    19    1
    24    14    40    1
    25    14    39    1
    26    15    16   ar
    27    15    21    1
    28    15    17   ar
    29    16    41    1
    30    16    18   ar
    31    17    19   ar
    32    17    42    1
    33    18    43    1
    34    18    20   ar
    35    19    20   ar
    36    20    44    1
    37    22    45    1
    38    22    24   ar
    39    22    23   ar
    40    23    28    1
    41    23    25   ar
    42    24    46    1
    43    24    26   ar
    44    25    27   ar
    45    25    47    1
    46    26    27   ar
    47    27    48    1
    48    28    30   ar
    49    28    29   ar
    50    29    31   ar
    51    29    49    1
    52    30    32   ar
    53    31    32   ar
    54    31    50    1
    55    32    51    1
