@<TRIPOS>MOLECULE
/home/lqcapf-6/arquivos_joao/4D/Alinhamento/alinhadas1/Mol40_PAC_aligned.pdb
 50 54 0 0 0
SMALL
GASTEIGER

@<TRIPOS>ATOM
      1 CL         27.3140   11.3270   21.5860 Cl      1  UNL1       -0.0835
      2  C         26.7340   12.9790   21.6600 C.ar    1  UNL1        0.0413
      3  C         27.5780   13.9070   22.3160 C.ar    1  UNL1       -0.0434
      4  C         27.4270   15.3420   22.1560 C.ar    1  UNL1       -0.0601
      5  C         26.3070   15.7790   21.3870 C.ar    1  UNL1       -0.0570
      6  C         25.3000   14.8570   20.9880 C.ar    1  UNL1       -0.0283
      7  C         25.6250   13.4450   21.0170 C.ar    1  UNL1       -0.0387
      8  C         23.9830   15.4830   20.4770 C.3     1  UNL1        0.0463
      9  N         23.9820   16.1250   19.0820 N.am    1  UNL1       -0.2502
     10  C         22.7800   16.4880   18.5010 C.2     1  UNL1        0.2427
     11  O         22.6860   16.7810   17.3140 O.2     1  UNL1       -0.2732
     12  C         21.5000   16.4980   19.4070 C.3     1  UNL1        0.1205
     13  N         20.2960   17.2070   18.8720 N.ar    1  UNL1       -0.2351
     14  N         20.0920   18.5640   19.0100 N.ar    1  UNL1       -0.0641
     15  N         18.9150   18.8490   18.4800 N.ar    1  UNL1       -0.1295
     16  C         18.3870   17.6730   18.0120 C.ar    1  UNL1        0.1127
     17  C         17.1470   17.4310   17.4140 C.ar    1  UNL1       -0.0324
     18  C         16.7940   16.0740   17.0170 C.ar    1  UNL1       -0.0596
     19  C         17.6920   15.0560   17.3060 C.ar    1  UNL1       -0.0596
     20  C         18.9190   15.3310   17.9280 C.ar    1  UNL1       -0.0345
     21  C         19.2410   16.6490   18.2640 C.ar    1  UNL1        0.0895
     22  C         25.1050   15.8130   18.2910 C.ar    1  UNL1        0.1278
     23  C         26.3750   16.4880   18.4320 C.ar    1  UNL1       -0.0207
     24  C         27.3580   16.2060   17.4200 C.ar    1  UNL1       -0.0495
     25  C         27.2100   15.1490   16.5130 C.ar    1  UNL1       -0.0007
     26  C         25.9320   14.5000   16.5370 C.ar    1  UNL1        0.0372
     27  N         24.9360   14.7840   17.4390 N.ar    1  UNL1       -0.2393
     28  C         28.1720   14.9560   15.4100 C.2     1  UNL1       -0.0019
     29  C         29.3480   15.5570   15.2720 C.2     1  UNL1        0.0118
     30  N         29.8990   14.9560   14.1760 N.pl3   1  UNL1       -0.2695
     31  N         29.2010   13.8270   13.8320 N.3     1  UNL1       -0.1354
     32  C         28.0520   13.8700   14.5140 C.3     1  UNL1        0.0948
     33  H         28.4660   13.5000   22.7920 H       1  UNL1        0.0632
     34  H         28.2440   15.9890   22.4600 H       1  UNL1        0.0618
     35  H         26.1160   16.8480   21.3610 H       1  UNL1        0.0621
     36  H         24.8370   12.7850   20.6690 H       1  UNL1        0.0635
     37  H         23.2790   14.6420   20.5060 H       1  UNL1        0.0518
     38  H         23.6000   16.2320   21.1800 H       1  UNL1        0.0518
     39  H         21.2580   15.4740   19.7190 H       1  UNL1        0.0606
     40  H         21.7930   17.0610   20.3010 H       1  UNL1        0.0606
     41  H         16.5120   18.2680   17.1380 H       1  UNL1        0.0640
     42  H         15.8560   15.8420   16.5210 H       1  UNL1        0.0618
     43  H         17.4520   14.0880   16.8770 H       1  UNL1        0.0618
     44  H         19.5550   14.4970   18.2130 H       1  UNL1        0.0639
     45  H         26.5620   17.2140   19.2170 H       1  UNL1        0.0652
     46  H         28.3360   16.6750   17.4640 H       1  UNL1        0.0625
     47  H         25.6790   13.7690   15.7710 H       1  UNL1        0.0836
     48  H         29.8780   16.3260   15.8180 H       1  UNL1        0.0796
     49  H         27.2330   13.2410   14.1910 H       1  UNL1        0.0565
     50  H         30.8580   15.0500   13.8720 H       1  UNL1        0.1672
@<TRIPOS>BOND
     1     1     2    1
     2     2     7   ar
     3     2     3   ar
     4     3     4   ar
     5     3    33    1
     6     4     5   ar
     7     4    34    1
     8     5     6   ar
     9     5    35    1
    10     6     8    1
    11     6     7   ar
    12     7    36    1
    13     8     9    1
    14     8    37    1
    15     8    38    1
    16     9    10   am
    17     9    22    1
    18    10    11    2
    19    10    12    1
    20    12    13    1
    21    12    39    1
    22    12    40    1
    23    13    21   ar
    24    13    14   ar
    25    14    15   ar
    26    15    16   ar
    27    16    17   ar
    28    16    21   ar
    29    17    18   ar
    30    17    41    1
    31    18    42    1
    32    18    19   ar
    33    19    43    1
    34    19    20   ar
    35    20    44    1
    36    20    21   ar
    37    22    27   ar
    38    22    23   ar
    39    23    24   ar
    40    23    45    1
    41    24    25   ar
    42    24    46    1
    43    25    26   ar
    44    25    28    1
    45    26    47    1
    46    26    27   ar
    47    28    32    1
    48    28    29    2
    49    29    30    1
    50    29    48    1
    51    30    31    1
    52    30    50    1
    53    31    32    1
    54    32    49    1
