@<TRIPOS>MOLECULE
C:\Users\Asus\Downloads\Iniciação científica\Pre-qsarmodeling\Arquivos saída MOPAC\Molecula01.out
 52 56 0 0 0
SMALL
MULLIKEN_CHARGES

@<TRIPOS>ATOM
      1 O          21.0704   -6.8411   -0.6537 O.2     1  UNL1       -0.3270
      2 C          21.7682   -7.7914   -0.2601 C.2     1  UNL1        0.2828
      3 C          23.2029   -7.5607    0.2505 C.3     1  UNL1       -0.0145
      4 N          23.6044   -6.1805    0.3365 N.ar    1  UNL1       -0.1945
      5 N          23.0370   -5.2708    1.1972 N.ar    1  UNL1        0.0669
      6 N          23.3190   -4.0869    0.8911 N.ar    1  UNL1       -0.0583
      7 C          24.0930   -4.0776   -0.3157 C.ar    1  UNL1       -0.1231
      8 C          24.6721   -3.0629   -1.0763 C.ar    1  UNL1       -0.0428
      9 C          25.3843   -3.4366   -2.2115 C.ar    1  UNL1       -0.1565
     10 C          25.5359   -4.7831   -2.5799 C.ar    1  UNL1       -0.0948
     11 C          24.9760   -5.8198   -1.8399 C.ar    1  UNL1       -0.1314
     12 C          24.2499   -5.4648   -0.7028 C.ar    1  UNL1       -0.0172
     13 N          21.2726   -9.0951   -0.2579 N.am    1  UNL1       -0.2937
     14 C          22.0838  -10.2472    0.0718 C.3     1  UNL1        0.0499
     15 C          22.0375  -11.3659   -0.9117 C.ar    1  UNL1       -0.1345
     16 C          21.9898  -12.7391   -0.4955 C.ar    1  UNL1       -0.1434
     17 C          22.0225  -13.5931   -1.5748 C.ar    1  UNL1       -0.4405
     18 S          22.0917  -12.7581   -3.0198 S.2     1  UNL1        0.5806
     19 C          22.0944  -11.2612   -2.2872 C.ar    1  UNL1       -0.4246
     20 C          19.8872   -9.3168   -0.5072 C.ar    1  UNL1        0.0312
     21 C          19.1168  -10.1240    0.3521 C.ar    1  UNL1       -0.1142
     22 C          17.7570  -10.3103    0.1360 C.ar    1  UNL1       -0.1481
     23 C          17.1056   -9.6788   -0.9431 C.ar    1  UNL1        0.0733
     24 C          17.8859   -8.8909   -1.8232 C.ar    1  UNL1       -0.1755
     25 C          19.2445   -8.7157   -1.6090 C.ar    1  UNL1       -0.0897
     26 N          15.7228   -9.7658   -1.1689 N.am    1  UNL1       -0.3229
     27 C          14.7877  -10.4868   -0.4385 C.2     1  UNL1        0.3393
     28 O          15.0902  -11.2657    0.4822 O.2     1  UNL1       -0.3431
     29 C          13.3550  -10.2280   -0.8034 C.3     1  UNL1       -0.2080
     30 C          12.4707  -11.3824   -1.1855 C.3     1  UNL1       -0.1760
     31 C          12.8620  -10.3684   -2.2181 C.3     1  UNL1       -0.2094
     32 H          23.2919   -8.0043    1.2849 H       1  UNL1        0.1332
     33 H          23.9242   -8.0701   -0.4505 H       1  UNL1        0.1217
     34 H          24.5710   -2.0076   -0.7842 H       1  UNL1        0.1542
     35 H          25.8448   -2.6570   -2.8384 H       1  UNL1        0.1389
     36 H          26.1217   -5.0264   -3.4800 H       1  UNL1        0.1363
     37 H          25.0997   -6.8674   -2.1428 H       1  UNL1        0.1389
     38 H          23.1668   -9.9402    0.1647 H       1  UNL1        0.0906
     39 H          21.7610  -10.6387    1.0830 H       1  UNL1        0.0904
     40 H          21.9310  -13.0443    0.5513 H       1  UNL1        0.1550
     41 H          22.0039  -14.6804   -1.5240 H       1  UNL1        0.1739
     42 H          22.1217  -10.3286   -2.8485 H       1  UNL1        0.1748
     43 H          19.5788  -10.6199    1.2199 H       1  UNL1        0.1353
     44 H          17.1946  -10.9517    0.8352 H       1  UNL1        0.1739
     45 H          17.4237   -8.3895   -2.6878 H       1  UNL1        0.1313
     46 H          19.8142   -8.0639   -2.2907 H       1  UNL1        0.1515
     47 H          15.3715   -9.1881   -1.9007 H       1  UNL1        0.2321
     48 H          12.9351   -9.4240   -0.1643 H       1  UNL1        0.1488
     49 H          12.9099  -12.3956   -1.2269 H       1  UNL1        0.1274
     50 H          11.4338  -11.3940   -0.8047 H       1  UNL1        0.1185
     51 H          12.1036   -9.6514   -2.5821 H       1  UNL1        0.1165
     52 H          13.5680  -10.6608   -3.0158 H       1  UNL1        0.1163
@<TRIPOS>BOND
     1    36    10    1
     2    18    19   ar
     3    18    17   ar
     4    52    31    1
     5    42    19    1
     6    35     9    1
     7    45    24    1
     8    51    31    1
     9    10     9   ar
    10    10    11   ar
    11    46    25    1
    12    19    15   ar
    13    31    30    1
    14    31    29    1
    15     9     8   ar
    16    37    11    1
    17    47    26    1
    18    11    12   ar
    19    24    25   ar
    20    24    23   ar
    21    25    20   ar
    22    17    41    1
    23    17    16   ar
    24    49    30    1
    25    30    50    1
    26    30    29    1
    27    26    23    1
    28    26    27   am
    29     8    34    1
    30     8     7   ar
    31    23    22   ar
    32    15    16   ar
    33    15    14    1
    34    29    27    1
    35    29    48    1
    36    12     7   ar
    37    12     4   ar
    38     1     2    2
    39    20    13    1
    40    20    21   ar
    41    16    40    1
    42    33     3    1
    43    27    28    2
    44     7     6   ar
    45     2    13   am
    46     2     3    1
    47    13    14    1
    48    14    38    1
    49    14    39    1
    50    22    21   ar
    51    22    44    1
    52     3     4    1
    53     3    32    1
    54     4     5   ar
    55    21    43    1
    56     6     5   ar
