@<TRIPOS>MOLECULE
C:\Users\Asus\Downloads\Iniciação científica\Pre-qsarmodeling\Arquivos saída MOPAC\Molecula07.out
 51 55 0 0 0
SMALL
MULLIKEN_CHARGES

@<TRIPOS>ATOM
      1 O          15.5026   -8.1441   -1.5299 O.2     1  UNL1       -0.3435
      2 C          16.6845   -8.2256   -1.9105 C.2     1  UNL1        0.3137
      3 C          17.7768   -8.5169   -0.8709 C.3     1  UNL1       -0.0136
      4 N          18.5132   -9.7317   -1.1101 N.ar    1  UNL1       -0.1992
      5 N          18.0280  -10.8485   -1.7251 N.ar    1  UNL1        0.0608
      6 N          18.8559  -11.7982   -1.7007 N.ar    1  UNL1       -0.0761
      7 C          20.0341  -11.3815   -1.0098 C.ar    1  UNL1       -0.1283
      8 C          19.8033  -10.0070   -0.6118 C.ar    1  UNL1       -0.0182
      9 C          20.7695   -9.2825    0.0930 C.ar    1  UNL1       -0.1298
     10 C          21.9539   -9.9423    0.3913 C.ar    1  UNL1       -0.0941
     11 C          22.1843  -11.2769    0.0087 C.ar    1  UNL1       -0.1574
     12 C          21.2389  -12.0135   -0.6923 C.ar    1  UNL1       -0.0452
     13 N          17.0325   -8.0642   -3.2410 N.am    1  UNL1       -0.2836
     14 C          15.9990   -7.8541   -4.2401 C.3     1  UNL1        0.0450
     15 C          15.6551   -6.4320   -4.5170 C.ar    1  UNL1       -0.1404
     16 C          14.4340   -5.8519   -4.2361 C.ar    1  UNL1       -0.4149
     17 S          14.3788   -4.2625   -4.7380 S.2     1  UNL1        0.5638
     18 C          15.9436   -4.2742   -5.3296 C.ar    1  UNL1       -0.4469
     19 C          16.5403   -5.5022   -5.1569 C.ar    1  UNL1       -0.1420
     20 C          18.3844   -7.9840   -3.6714 C.ar    1  UNL1        0.0459
     21 C          19.2073   -6.8991   -3.3030 C.ar    1  UNL1       -0.1465
     22 C          20.5179   -6.8234   -3.7623 C.ar    1  UNL1       -0.1153
     23 C          21.0451   -7.8180   -4.5963 C.ar    1  UNL1       -0.0324
     24 C          20.2292   -8.8973   -4.9619 C.ar    1  UNL1       -0.1107
     25 C          18.9165   -8.9842   -4.5125 C.ar    1  UNL1       -0.1225
     26 C          22.4198   -7.7328   -5.0845 C.ar    1  UNL1       -0.0427
     27 C          22.9455   -6.5085   -5.5212 C.ar    1  UNL1       -0.1178
     28 C          24.2522   -6.4352   -5.9994 C.ar    1  UNL1       -0.1307
     29 C          25.0492   -7.5792   -6.0415 C.ar    1  UNL1       -0.1247
     30 C          24.5348   -8.7992   -5.6031 C.ar    1  UNL1       -0.1303
     31 C          23.2270   -8.8788   -5.1293 C.ar    1  UNL1       -0.1159
     32 H          17.2592   -8.5863    0.1318 H       1  UNL1        0.1290
     33 H          18.5099   -7.6600   -0.8507 H       1  UNL1        0.1179
     34 H          20.5983   -8.2411    0.3946 H       1  UNL1        0.1417
     35 H          22.7405   -9.4060    0.9450 H       1  UNL1        0.1375
     36 H          23.1437  -11.7455    0.2755 H       1  UNL1        0.1386
     37 H          21.4233  -13.0562   -0.9879 H       1  UNL1        0.1532
     38 H          16.3521   -8.3319   -5.2009 H       1  UNL1        0.1007
     39 H          15.0701   -8.3933   -3.8879 H       1  UNL1        0.1225
     40 H          13.6018   -6.3502   -3.7391 H       1  UNL1        0.1808
     41 H          16.4054   -3.4034   -5.7908 H       1  UNL1        0.1700
     42 H          17.5586   -5.7643   -5.4527 H       1  UNL1        0.1569
     43 H          18.8141   -6.0989   -2.6566 H       1  UNL1        0.1396
     44 H          21.1485   -5.9711   -3.4652 H       1  UNL1        0.1388
     45 H          20.6307   -9.6861   -5.6174 H       1  UNL1        0.1430
     46 H          18.2952   -9.8428   -4.8138 H       1  UNL1        0.1519
     47 H          22.3180   -5.6051   -5.4943 H       1  UNL1        0.1340
     48 H          24.6544   -5.4720   -6.3466 H       1  UNL1        0.1330
     49 H          26.0795   -7.5198   -6.4217 H       1  UNL1        0.1329
     50 H          25.1618   -9.7027   -5.6304 H       1  UNL1        0.1336
     51 H          22.8253   -9.8425   -4.7815 H       1  UNL1        0.1376
@<TRIPOS>BOND
     1    49    29    1
     2    48    28    1
     3    29    28   ar
     4    29    30   ar
     5    28    27   ar
     6    41    18    1
     7    50    30    1
     8    45    24    1
     9    30    31   ar
    10    27    47    1
    11    27    26   ar
    12    42    19    1
    13    18    19   ar
    14    18    17   ar
    15    38    14    1
    16    19    15   ar
    17    31    26   ar
    18    31    51    1
    19    26    23    1
    20    24    23   ar
    21    24    25   ar
    22    46    25    1
    23    17    16   ar
    24    23    22   ar
    25    15    14    1
    26    15    16   ar
    27    25    20   ar
    28    14    39    1
    29    14    13    1
    30    16    40    1
    31    22    44    1
    32    22    21   ar
    33    20    21   ar
    34    20    13    1
    35    21    43    1
    36    13     2   am
    37     2     1    2
    38     2     3    1
    39     5     6   ar
    40     5     4   ar
    41     6     7   ar
    42     4     3    1
    43     4     8   ar
    44     7    12   ar
    45     7     8   ar
    46    37    12    1
    47     3    33    1
    48     3    32    1
    49    12    11   ar
    50     8     9   ar
    51    11    36    1
    52    11    10   ar
    53     9    10   ar
    54     9    34    1
    55    10    35    1
