@<TRIPOS>MOLECULE
C:\Users\Asus\Downloads\Iniciação científica\Pre-qsarmodeling\Arquivos saída MOPAC\Molecula09.out
 41 44 0 0 0
SMALL
MULLIKEN_CHARGES

@<TRIPOS>ATOM
      1 O          21.9183   -8.9459   -2.4839 O.2     1  UNL1       -0.3677
      2 C          20.8031   -8.7074   -1.9781 C.2     1  UNL1        0.2892
      3 C          20.0297   -7.4603   -2.4473 C.3     1  UNL1       -0.0119
      4 N          20.1267   -6.3605   -1.5260 N.ar    1  UNL1       -0.2030
      5 N          19.0810   -5.7895   -0.8569 N.ar    1  UNL1        0.0565
      6 N          19.4551   -4.8398   -0.1198 N.ar    1  UNL1       -0.0745
      7 C          20.8715   -4.6859   -0.2249 C.ar    1  UNL1       -0.1309
      8 C          21.7918   -3.8117    0.3591 C.ar    1  UNL1       -0.0498
      9 C          23.1278   -3.9628    0.0118 C.ar    1  UNL1       -0.1559
     10 C          23.5556   -4.9563   -0.8889 C.ar    1  UNL1       -0.0983
     11 C          22.6699   -5.8420   -1.4879 C.ar    1  UNL1       -0.1230
     12 C          21.3187   -5.7003   -1.1564 C.ar    1  UNL1       -0.0206
     13 N          20.2730   -9.5137   -0.9880 N.am    1  UNL1       -0.2782
     14 C          21.0191  -10.6678   -0.5133 C.3     1  UNL1        0.0431
     15 C          20.8441  -11.9109   -1.3122 C.ar    1  UNL1       -0.1461
     16 C          20.1311  -13.0632   -0.8437 C.ar    1  UNL1       -0.1389
     17 C          20.1607  -14.0826   -1.7681 C.ar    1  UNL1       -0.4482
     18 S          21.0129  -13.6458   -3.1398 S.2     1  UNL1        0.5673
     19 C          21.3709  -12.1208   -2.5717 C.ar    1  UNL1       -0.4200
     20 C          18.9269   -9.3852   -0.5434 C.ar    1  UNL1        0.0368
     21 C          18.6658   -8.9943    0.7866 C.ar    1  UNL1       -0.1191
     22 C          17.3529   -8.8952    1.2397 C.ar    1  UNL1       -0.1171
     23 C          16.2867   -9.1845    0.3898 C.ar    1  UNL1       -0.1220
     24 C          16.5362   -9.5720   -0.9257 C.ar    1  UNL1       -0.1209
     25 C          17.8424   -9.6764   -1.3967 C.ar    1  UNL1       -0.1383
     26 H          20.4986   -7.1452   -3.4257 H       1  UNL1        0.1275
     27 H          18.9472   -7.7211   -2.6226 H       1  UNL1        0.1404
     28 H          21.4624   -3.0379    1.0668 H       1  UNL1        0.1519
     29 H          23.8789   -3.2900    0.4533 H       1  UNL1        0.1376
     30 H          24.6291   -5.0343   -1.1227 H       1  UNL1        0.1385
     31 H          23.0059   -6.6311   -2.1776 H       1  UNL1        0.1651
     32 H          22.1145  -10.3877   -0.5224 H       1  UNL1        0.1196
     33 H          20.7034  -10.8612    0.5524 H       1  UNL1        0.1008
     34 H          19.6326  -13.1033    0.1266 H       1  UNL1        0.1539
     35 H          19.6969  -15.0594   -1.6464 H       1  UNL1        0.1709
     36 H          21.9514  -11.3809   -3.1274 H       1  UNL1        0.1919
     37 H          19.4968   -8.7614    1.4704 H       1  UNL1        0.1435
     38 H          17.1606   -8.5781    2.2760 H       1  UNL1        0.1387
     39 H          15.2523   -9.1071    0.7551 H       1  UNL1        0.1368
     40 H          15.6972   -9.8015   -1.5996 H       1  UNL1        0.1360
     41 H          18.0203   -9.9956   -2.4351 H       1  UNL1        0.1384
@<TRIPOS>BOND
     1    26     3    1
     2    18    19   ar
     3    18    17   ar
     4    36    19    1
     5    27     3    1
     6    19    15   ar
     7     1     2    2
     8     3     2    1
     9     3     4    1
    10    41    25    1
    11    31    11    1
    12     2    13   am
    13    17    35    1
    14    17    16   ar
    15    40    24    1
    16     4    12   ar
    17     4     5   ar
    18    11    12   ar
    19    11    10   ar
    20    25    24   ar
    21    25    20   ar
    22    15    16   ar
    23    15    14    1
    24    12     7   ar
    25    30    10    1
    26    13    20    1
    27    13    14    1
    28    24    23   ar
    29    10     9   ar
    30     5     6   ar
    31    16    34    1
    32    20    21   ar
    33    32    14    1
    34    14    33    1
    35     7     6   ar
    36     7     8   ar
    37     9     8   ar
    38     9    29    1
    39     8    28    1
    40    23    39    1
    41    23    22   ar
    42    21    22   ar
    43    21    37    1
    44    22    38    1
