@<TRIPOS>MOLECULE
C:\Users\Asus\Downloads\Iniciação científica\Pre-qsarmodeling\Arquivos saída MOPAC\Molecula08.out
 50 54 0 0 0
SMALL
MULLIKEN_CHARGES

@<TRIPOS>ATOM
      1 O          15.3640   -8.2658    0.9846 O.2     1  UNL1       -0.3421
      2 C          16.5592   -8.3091    1.3278 C.2     1  UNL1        0.3138
      3 C          17.6177   -8.6453    0.2675 C.3     1  UNL1       -0.0140
      4 N          18.4022   -9.8184    0.5576 N.ar    1  UNL1       -0.1994
      5 N          17.9779  -10.9069    1.2616 N.ar    1  UNL1        0.0607
      6 N          18.8269  -11.8379    1.2490 N.ar    1  UNL1       -0.0758
      7 C          19.9550  -11.4396    0.4690 C.ar    1  UNL1       -0.1284
      8 C          19.6694  -10.0967    0.0045 C.ar    1  UNL1       -0.0191
      9 C          20.5798   -9.3940   -0.7902 C.ar    1  UNL1       -0.1300
     10 C          21.7617  -10.0455   -1.1164 C.ar    1  UNL1       -0.0941
     11 C          22.0428  -11.3517   -0.6741 C.ar    1  UNL1       -0.1572
     12 C          21.1546  -12.0647    0.1200 C.ar    1  UNL1       -0.0455
     13 N          16.9487   -8.0637    2.6342 N.am    1  UNL1       -0.2841
     14 C          15.9469   -7.7873    3.6495 C.3     1  UNL1        0.0450
     15 C          15.6039   -6.3505    3.8354 C.ar    1  UNL1       -0.1416
     16 C          14.3646   -5.8016    3.5715 C.ar    1  UNL1       -0.4157
     17 S          14.3177   -4.1790    3.9521 S.2     1  UNL1        0.5674
     18 C          15.9088   -4.1350    4.4659 C.ar    1  UNL1       -0.4466
     19 C          16.5096   -5.3684    4.3574 C.ar    1  UNL1       -0.1431
     20 C          18.3131   -7.9472    3.0119 C.ar    1  UNL1        0.0503
     21 C          18.8844   -8.8916    3.8908 C.ar    1  UNL1       -0.1209
     22 C          20.2120   -8.7695    4.2850 C.ar    1  UNL1       -0.1098
     23 C          21.0065   -7.7121    3.8205 C.ar    1  UNL1       -0.0320
     24 C          20.4399   -6.7728    2.9483 C.ar    1  UNL1       -0.1141
     25 C          19.1122   -6.8808    2.5492 C.ar    1  UNL1       -0.1457
     26 C          22.3954   -7.5896    4.2428 C.ar    1  UNL1       -0.0893
     27 C          22.9611   -6.3203    4.5106 C.ar    1  UNL1       -0.0609
     28 N          24.2317   -6.1388    4.9108 N.ar    1  UNL1       -0.1368
     29 C          24.9988   -7.2367    5.0617 C.ar    1  UNL1       -0.0695
     30 C          24.5353   -8.5426    4.8206 C.ar    1  UNL1       -0.1801
     31 C          23.2156   -8.7167    4.4051 C.ar    1  UNL1       -0.0819
     32 H          18.3235   -7.7728    0.1575 H       1  UNL1        0.1178
     33 H          17.0624   -8.7981   -0.7055 H       1  UNL1        0.1297
     34 H          20.3695   -8.3749   -1.1389 H       1  UNL1        0.1420
     35 H          22.5042   -9.5260   -1.7423 H       1  UNL1        0.1381
     36 H          22.9955  -11.8167   -0.9703 H       1  UNL1        0.1391
     37 H          21.3784  -13.0848    0.4632 H       1  UNL1        0.1534
     38 H          15.0107   -8.3531    3.3654 H       1  UNL1        0.1230
     39 H          16.3328   -8.1949    4.6299 H       1  UNL1        0.1009
     40 H          13.5145   -6.3426    3.1564 H       1  UNL1        0.1807
     41 H          16.3835   -3.2296    4.8390 H       1  UNL1        0.1708
     42 H          17.5441   -5.5993    4.6207 H       1  UNL1        0.1564
     43 H          18.2825   -9.7360    4.2640 H       1  UNL1        0.1535
     44 H          20.6414   -9.5137    4.9743 H       1  UNL1        0.1417
     45 H          21.0520   -5.9386    2.5711 H       1  UNL1        0.1396
     46 H          18.6876   -6.1206    1.8746 H       1  UNL1        0.1415
     47 H          22.3535   -5.4030    4.4049 H       1  UNL1        0.1614
     48 H          26.0361   -7.0557    5.3951 H       1  UNL1        0.1608
     49 H          25.2015   -9.4043    4.9587 H       1  UNL1        0.1456
     50 H          22.8219   -9.7237    4.2004 H       1  UNL1        0.1442
@<TRIPOS>BOND
     1    35    10    1
     2    34     9    1
     3    10     9   ar
     4    10    11   ar
     5    36    11    1
     6     9     8   ar
     7    33     3    1
     8    11    12   ar
     9     8     7   ar
    10     8     4   ar
    11    12    37    1
    12    12     7   ar
    13    32     3    1
    14     3     4    1
    15     3     2    1
    16     7     6   ar
    17     4     5   ar
    18     1     2    2
    19     6     5   ar
    20     2    13   am
    21    46    25    1
    22    25    24   ar
    23    25    20   ar
    24    45    24    1
    25    13    20    1
    26    13    14    1
    27    24    23   ar
    28    20    21   ar
    29    40    16    1
    30    38    14    1
    31    16    15   ar
    32    16    17   ar
    33    14    15    1
    34    14    39    1
    35    23    26    1
    36    23    22   ar
    37    15    19   ar
    38    21    43    1
    39    21    22   ar
    40    17    18   ar
    41    50    31    1
    42    26    31   ar
    43    26    27   ar
    44    22    44    1
    45    19    18   ar
    46    19    42    1
    47    47    27    1
    48    31    30   ar
    49    18    41    1
    50    27    28   ar
    51    30    49    1
    52    30    29   ar
    53    28    29   ar
    54    29    48    1
