@<TRIPOS>MOLECULE
C:\Users\Asus\Downloads\Iniciação científica\Pre-qsarmodeling\Arquivos saída MOPAC\Molecula19.out
 48 52 0 0 0
SMALL
MULLIKEN_CHARGES

@<TRIPOS>ATOM
      1 O          20.9947   -8.3691   -2.8426 O.2     1  UNL1       -0.3081
      2 C          21.3576   -9.0221   -1.8513 C.2     1  UNL1        0.2851
      3 C          22.6485   -8.6592   -1.0911 C.3     1  UNL1       -0.0143
      4 N          22.9967   -7.2623   -1.1701 N.ar    1  UNL1       -0.1966
      5 N          22.1143   -6.2534   -0.8658 N.ar    1  UNL1        0.0580
      6 N          22.4998   -5.1386   -1.2936 N.ar    1  UNL1       -0.0573
      7 C          23.7214   -5.3062   -2.0228 C.ar    1  UNL1       -0.1258
      8 C          24.5707   -4.4178   -2.6815 C.ar    1  UNL1       -0.0418
      9 C          25.7183   -4.9431   -3.2650 C.ar    1  UNL1       -0.1562
     10 C          26.0221   -6.3130   -3.2010 C.ar    1  UNL1       -0.0936
     11 C          25.1941   -7.2255   -2.5559 C.ar    1  UNL1       -0.1310
     12 C          24.0341   -6.7195   -1.9661 C.ar    1  UNL1       -0.0153
     13 N          20.5908  -10.0791   -1.3323 N.am    1  UNL1       -0.2864
     14 C          21.2399  -11.2458   -0.7793 C.3     1  UNL1        0.0397
     15 C          21.7233  -12.2665   -1.7525 C.ar    1  UNL1       -0.1546
     16 C          21.9399  -13.6293   -1.3569 C.ar    1  UNL1       -0.1508
     17 C          22.4071  -14.3892   -2.4061 C.ar    1  UNL1       -0.4435
     18 S          22.5613  -13.4841   -3.8008 S.2     1  UNL1        0.5909
     19 C          22.0332  -12.0757   -3.0844 C.ar    1  UNL1       -0.4355
     20 C          19.2135  -10.1804   -1.6688 C.ar    1  UNL1        0.0593
     21 C          18.6075  -11.4258   -1.9324 C.ar    1  UNL1       -0.1599
     22 C          17.2369  -11.5095   -2.1489 C.ar    1  UNL1       -0.1107
     23 C          16.4302  -10.3647   -2.1162 C.ar    1  UNL1       -0.0102
     24 C          17.0369   -9.1205   -1.8918 C.ar    1  UNL1       -0.1031
     25 C          18.4055   -9.0213   -1.6763 C.ar    1  UNL1       -0.1280
     26 C          15.0087  -10.4636   -2.3126 C.ar    1  UNL1       -0.1412
     27 C          14.1346  -11.4668   -1.8514 C.ar    1  UNL1       -0.1119
     28 N          12.8633  -11.1118   -2.3000 N.ar    1  UNL1       -0.1665
     29 N          12.8669   -9.9780   -3.0034 N.ar    1  UNL1       -0.0839
     30 C          14.1514   -9.5428   -3.0371 C.ar    1  UNL1       -0.1552
     31 H          22.5294   -8.9061    0.0044 H       1  UNL1        0.1297
     32 H          23.4958   -9.2612   -1.5241 H       1  UNL1        0.1264
     33 H          24.3354   -3.3451   -2.7345 H       1  UNL1        0.1550
     34 H          26.4098   -4.2701   -3.7939 H       1  UNL1        0.1393
     35 H          26.9460   -6.6756   -3.6783 H       1  UNL1        0.1370
     36 H          25.4420   -8.2935   -2.5163 H       1  UNL1        0.1400
     37 H          22.1266  -10.9105   -0.1629 H       1  UNL1        0.0943
     38 H          20.5098  -11.7416   -0.0720 H       1  UNL1        0.1142
     39 H          21.7424  -13.9952   -0.3474 H       1  UNL1        0.1549
     40 H          22.6474  -15.4501   -2.3587 H       1  UNL1        0.1742
     41 H          21.9320  -11.1368   -3.6301 H       1  UNL1        0.1829
     42 H          19.2169  -12.3422   -1.9785 H       1  UNL1        0.1417
     43 H          16.7808  -12.4875   -2.3635 H       1  UNL1        0.1316
     44 H          16.4201   -8.2085   -1.8763 H       1  UNL1        0.1402
     45 H          18.8593   -8.0285   -1.5265 H       1  UNL1        0.1537
     46 H          14.3213  -12.3577   -1.2542 H       1  UNL1        0.1776
     47 H          14.4503   -8.6339   -3.5599 H       1  UNL1        0.1846
     48 H          12.0142  -11.6021   -2.1447 H       1  UNL1        0.2712
@<TRIPOS>BOND
     1    18    19   ar
     2    18    17   ar
     3    34     9    1
     4    35    10    1
     5    41    19    1
     6    47    30    1
     7     9    10   ar
     8     9     8   ar
     9    10    11   ar
    10    19    15   ar
    11    30    29   ar
    12    30    26   ar
    13    29    28   ar
    14     1     2    2
    15    33     8    1
    16     8     7   ar
    17    11    36    1
    18    11    12   ar
    19    17    40    1
    20    17    16   ar
    21    43    22    1
    22    26    23    1
    23    26    27   ar
    24    28    48    1
    25    28    27   ar
    26    22    23   ar
    27    22    21   ar
    28    23    24   ar
    29     7    12   ar
    30     7     6   ar
    31    42    21    1
    32    12     4   ar
    33    21    20   ar
    34    24    44    1
    35    24    25   ar
    36    27    46    1
    37     2    13   am
    38     2     3    1
    39    15    16   ar
    40    15    14    1
    41    25    20   ar
    42    25    45    1
    43    20    13    1
    44    32     3    1
    45    16    39    1
    46    13    14    1
    47     6     5   ar
    48     4     3    1
    49     4     5   ar
    50     3    31    1
    51    14    37    1
    52    14    38    1
