@<TRIPOS>MOLECULE
C:\Users\Asus\Downloads\Iniciação científica\Pre-qsarmodeling\Arquivos saída MOPAC\Molecula10.out
 45 48 0 0 0
SMALL
MULLIKEN_CHARGES

@<TRIPOS>ATOM
      1 N          13.7579  -10.1192   -0.5099 N.am    1  UNL1       -0.4369
      2 C          14.4528   -8.9362   -0.4237 C.2     1  UNL1        0.3464
      3 O          13.8983   -7.9277    0.0606 O.2     1  UNL1       -0.3682
      4 C          15.8517   -8.9010   -0.9309 C.ar    1  UNL1       -0.1358
      5 C          16.3043   -7.7343   -1.5557 C.ar    1  UNL1       -0.0625
      6 C          17.6028   -7.6477   -2.0458 C.ar    1  UNL1       -0.1360
      7 C          18.4954   -8.7312   -1.8921 C.ar    1  UNL1        0.0809
      8 C          18.0359   -9.8958   -1.2342 C.ar    1  UNL1       -0.1767
      9 C          16.7278   -9.9770   -0.7708 C.ar    1  UNL1       -0.0905
     10 N          19.8177   -8.6699   -2.4059 N.am    1  UNL1       -0.2865
     11 C          20.4290   -9.9129   -2.8231 C.3     1  UNL1        0.0324
     12 C          21.2345  -10.6499   -1.8089 C.ar    1  UNL1       -0.1534
     13 C          21.8799  -11.8876   -2.1467 C.ar    1  UNL1       -0.1523
     14 C          22.5510  -12.4157   -1.0670 C.ar    1  UNL1       -0.4380
     15 S          22.3989  -11.4495    0.2860 S.2     1  UNL1        0.5920
     16 C          21.4597  -10.3121   -0.4893 C.ar    1  UNL1       -0.4451
     17 C          20.5798   -7.4966   -2.3069 C.2     1  UNL1        0.2799
     18 O          20.0888   -6.4328   -1.8996 O.2     1  UNL1       -0.3136
     19 C          22.0482   -7.5851   -2.7636 C.3     1  UNL1       -0.0183
     20 N          22.8333   -6.4040   -2.5260 N.ar    1  UNL1       -0.1948
     21 N          22.7126   -5.2459   -3.2575 N.ar    1  UNL1        0.0626
     22 N          23.2625   -4.2687   -2.6953 N.ar    1  UNL1       -0.0565
     23 C          23.7787   -4.6794   -1.4226 C.ar    1  UNL1       -0.1235
     24 C          24.4729   -4.0161   -0.4117 C.ar    1  UNL1       -0.0417
     25 C          24.8338   -4.7560    0.7100 C.ar    1  UNL1       -0.1552
     26 C          24.5226   -6.1202    0.8296 C.ar    1  UNL1       -0.0940
     27 C          23.8378   -6.8123   -0.1642 C.ar    1  UNL1       -0.1312
     28 C          23.4630   -6.0873   -1.2957 C.ar    1  UNL1       -0.0167
     29 H          14.1606  -10.9216   -0.9163 H       1  UNL1        0.2198
     30 H          12.8218  -10.1571   -0.1932 H       1  UNL1        0.2307
     31 H          15.6222   -6.8725   -1.6482 H       1  UNL1        0.1611
     32 H          17.9334   -6.7150   -2.5325 H       1  UNL1        0.1694
     33 H          18.7146  -10.7478   -1.0674 H       1  UNL1        0.1443
     34 H          16.4036  -10.8927   -0.2527 H       1  UNL1        0.1338
     35 H          19.6067  -10.6033   -3.1817 H       1  UNL1        0.1172
     36 H          21.0894   -9.7048   -3.7175 H       1  UNL1        0.0985
     37 H          21.8294  -12.3343   -3.1416 H       1  UNL1        0.1573
     38 H          23.1170  -13.3463   -1.0699 H       1  UNL1        0.1770
     39 H          21.0706   -9.4264    0.0139 H       1  UNL1        0.1827
     40 H          22.5482   -8.4350   -2.2132 H       1  UNL1        0.1329
     41 H          22.0548   -7.7931   -3.8736 H       1  UNL1        0.1382
     42 H          24.7213   -2.9490   -0.5028 H       1  UNL1        0.1552
     43 H          25.3766   -4.2607    1.5295 H       1  UNL1        0.1396
     44 H          24.8290   -6.6574    1.7409 H       1  UNL1        0.1365
     45 H          23.6001   -7.8788   -0.0593 H       1  UNL1        0.1393
@<TRIPOS>BOND
     1    41    19    1
     2    36    11    1
     3    21    22   ar
     4    21    20   ar
     5    35    11    1
     6    37    13    1
     7    11    10    1
     8    11    12    1
     9    19    20    1
    10    19    17    1
    11    19    40    1
    12    22    23   ar
    13    32     6    1
    14    20    28   ar
    15    10    17   am
    16    10     7    1
    17    17    18    2
    18    13    12   ar
    19    13    14   ar
    20     6     7   ar
    21     6     5   ar
    22     7     8   ar
    23    12    16   ar
    24    31     5    1
    25     5     4   ar
    26    23    28   ar
    27    23    24   ar
    28    28    27   ar
    29     8    33    1
    30     8     9   ar
    31    38    14    1
    32    14    15   ar
    33     4     9   ar
    34     4     2    1
    35    29     1    1
    36     9    34    1
    37     1     2   am
    38     1    30    1
    39    42    24    1
    40    16    39    1
    41    16    15   ar
    42     2     3    2
    43    24    25   ar
    44    27    45    1
    45    27    26   ar
    46    25    26   ar
    47    25    43    1
    48    26    44    1
