@<TRIPOS>MOLECULE
C:\Users\Asus\Downloads\Iniciação científica\Pre-qsarmodeling\Arquivos saída MOPAC\Molecula15.out
 50 54 0 0 0
SMALL
MULLIKEN_CHARGES

@<TRIPOS>ATOM
      1 O          21.1242   -6.5983   -0.1615 O.2     1  UNL1       -0.3208
      2 C          21.6831   -7.6420    0.2114 C.2     1  UNL1        0.2802
      3 C          23.1803   -7.6709    0.5710 C.3     1  UNL1       -0.0216
      4 N          23.9029   -6.4638    0.2647 N.ar    1  UNL1       -0.1905
      5 N          23.7889   -5.3060    1.0015 N.ar    1  UNL1        0.0603
      6 N          24.1919   -4.2983    0.3738 N.ar    1  UNL1       -0.0555
      7 C          24.5682   -4.6837   -0.9556 C.ar    1  UNL1       -0.1231
      8 C          25.0731   -3.9826   -2.0491 C.ar    1  UNL1       -0.0431
      9 C          25.3362   -4.7058   -3.2089 C.ar    1  UNL1       -0.1551
     10 C          25.1175   -6.0905   -3.2837 C.ar    1  UNL1       -0.0956
     11 C          24.6247   -6.8205   -2.2061 C.ar    1  UNL1       -0.1284
     12 C          24.3435   -6.1119   -1.0384 C.ar    1  UNL1       -0.0185
     13 N          20.9749   -8.8400    0.3562 N.am    1  UNL1       -0.2873
     14 C          21.6462  -10.0629    0.7348 C.3     1  UNL1        0.0346
     15 C          22.4289  -10.7669   -0.3204 C.ar    1  UNL1       -0.1520
     16 C          23.3483  -11.8154    0.0249 C.ar    1  UNL1       -0.1523
     17 C          23.9316  -12.3621   -1.0953 C.ar    1  UNL1       -0.4375
     18 S          23.3845  -11.6319   -2.4942 S.2     1  UNL1        0.5828
     19 C          22.3717  -10.5820   -1.6870 C.ar    1  UNL1       -0.4410
     20 C          19.6142   -8.9326   -0.0442 C.ar    1  UNL1        0.0655
     21 C          19.1482  -10.0713   -0.7388 C.ar    1  UNL1       -0.1713
     22 C          17.8117  -10.1764   -1.1026 C.ar    1  UNL1       -0.1028
     23 C          16.9056   -9.1527   -0.8003 C.ar    1  UNL1       -0.0513
     24 C          17.3610   -8.0219   -0.1135 C.ar    1  UNL1       -0.0768
     25 C          18.6954   -7.9071    0.2637 C.ar    1  UNL1       -0.1285
     26 C          15.4964   -9.2760   -1.2095 C.ar    1  UNL1        0.0276
     27 C          15.1997   -9.8284   -2.4775 C.ar    1  UNL1       -0.1734
     28 C          13.8666   -9.9508   -2.8692 C.ar    1  UNL1       -0.0930
     29 C          12.8636   -9.5238   -2.0001 C.ar    1  UNL1       -0.1828
     30 C          13.2481   -8.9811   -0.7595 C.ar    1  UNL1       -0.0670
     31 N          14.5234   -8.8522   -0.3587 N.ar    1  UNL1       -0.1330
     32 H          23.2685   -7.8614    1.6805 H       1  UNL1        0.1386
     33 H          23.6778   -8.5096    0.0022 H       1  UNL1        0.1322
     34 H          25.2530   -2.8996   -1.9925 H       1  UNL1        0.1543
     35 H          25.7245   -4.1796   -4.0942 H       1  UNL1        0.1386
     36 H          25.3414   -6.6148   -4.2258 H       1  UNL1        0.1357
     37 H          24.4628   -7.9040   -2.2739 H       1  UNL1        0.1408
     38 H          22.3400   -9.8346    1.5983 H       1  UNL1        0.0955
     39 H          20.8640  -10.7834    1.1237 H       1  UNL1        0.1198
     40 H          23.5400  -12.1256    1.0542 H       1  UNL1        0.1572
     41 H          24.6601  -13.1718   -1.0973 H       1  UNL1        0.1762
     42 H          21.7426   -9.8549   -2.2020 H       1  UNL1        0.1841
     43 H          19.8412  -10.8869   -1.0012 H       1  UNL1        0.1412
     44 H          17.4657  -11.0789   -1.6297 H       1  UNL1        0.1349
     45 H          16.6597   -7.2097    0.1367 H       1  UNL1        0.1537
     46 H          19.0313   -6.9972    0.7880 H       1  UNL1        0.1627
     47 H          16.0127  -10.1457   -3.1445 H       1  UNL1        0.1449
     48 H          13.6137  -10.3756   -3.8514 H       1  UNL1        0.1378
     49 H          11.8031   -9.6033   -2.2689 H       1  UNL1        0.1437
     50 H          12.4890   -8.6266   -0.0386 H       1  UNL1        0.1596
@<TRIPOS>BOND
     1    36    10    1
     2    35     9    1
     3    48    28    1
     4    10     9   ar
     5    10    11   ar
     6     9     8   ar
     7    47    27    1
     8    28    27   ar
     9    28    29   ar
    10    18    19   ar
    11    18    17   ar
    12    27    26   ar
    13    37    11    1
    14    49    29    1
    15    11    12   ar
    16    42    19    1
    17     8    34    1
    18     8     7   ar
    19    29    30   ar
    20    19    15   ar
    21    44    22    1
    22    26    23    1
    23    26    31   ar
    24    22    23   ar
    25    22    21   ar
    26    41    17    1
    27    17    16   ar
    28    12     7   ar
    29    12     4   ar
    30    43    21    1
    31     7     6   ar
    32    23    24   ar
    33    30    31   ar
    34    30    50    1
    35    21    20   ar
    36    15    16   ar
    37    15    14    1
    38     1     2    2
    39    24    45    1
    40    24    25   ar
    41    20    25   ar
    42    20    13    1
    43    33     3    1
    44    16    40    1
    45     2    13   am
    46     2     3    1
    47    25    46    1
    48     4     3    1
    49     4     5   ar
    50    13    14    1
    51     6     5   ar
    52     3    32    1
    53    14    39    1
    54    14    38    1
