@<TRIPOS>MOLECULE
C:\Users\Asus\Downloads\Iniciação científica\Pre-qsarmodeling\Arquivos saída MOPAC\Molecula14.out
 50 54 0 0 0
SMALL
MULLIKEN_CHARGES

@<TRIPOS>ATOM
      1 O          21.1682   -7.0030   -1.8883 O.2     1  UNL1       -0.3045
      2 C          21.5170   -7.7342   -0.9514 C.2     1  UNL1        0.2982
      3 C          22.7563   -7.3746   -0.0991 C.3     1  UNL1       -0.0153
      4 N          23.0852   -5.9743   -0.0930 N.ar    1  UNL1       -0.1996
      5 N          22.2151   -4.9828    0.2888 N.ar    1  UNL1        0.0629
      6 N          22.6273   -3.8416   -0.0292 N.ar    1  UNL1       -0.0579
      7 C          23.8606   -3.9626   -0.7479 C.ar    1  UNL1       -0.1249
      8 C          24.7439   -3.0341   -1.2986 C.ar    1  UNL1       -0.0417
      9 C          25.8924   -3.5259   -1.9106 C.ar    1  UNL1       -0.1556
     10 C          26.1623   -4.9035   -1.9807 C.ar    1  UNL1       -0.0927
     11 C          25.3031   -5.8540   -1.4419 C.ar    1  UNL1       -0.1318
     12 C          24.1466   -5.3810   -0.8191 C.ar    1  UNL1       -0.0153
     13 N          20.8251   -8.9041   -0.5929 N.am    1  UNL1       -0.2975
     14 C          21.5769  -10.0286   -0.0683 C.3     1  UNL1        0.0452
     15 C          21.5393  -11.2697   -0.8906 C.ar    1  UNL1       -0.1452
     16 C          21.4988  -12.5725   -0.2889 C.ar    1  UNL1       -0.1493
     17 C          21.5419  -13.5665   -1.2416 C.ar    1  UNL1       -0.4437
     18 S          21.6111  -12.9363   -2.7861 S.2     1  UNL1        0.5935
     19 C          21.5997  -11.3531   -2.2678 C.ar    1  UNL1       -0.4232
     20 C          19.4267   -9.0532   -0.7614 C.ar    1  UNL1        0.0953
     21 C          18.7500  -10.1132   -0.1072 C.ar    1  UNL1       -0.1718
     22 C          17.3703  -10.2439   -0.1967 C.ar    1  UNL1       -0.0904
     23 C          16.6056   -9.3390   -0.9423 C.ar    1  UNL1       -0.0786
     24 C          17.2674   -8.3004   -1.6062 C.ar    1  UNL1       -0.0886
     25 C          18.6491   -8.1568   -1.5294 C.ar    1  UNL1       -0.1623
     26 C          15.1562   -9.4834   -1.0281 C.ar    1  UNL1        0.0117
     27 C          14.5677  -10.7498   -1.1773 C.ar    1  UNL1       -0.1768
     28 C          13.1683  -10.8386   -1.2531 C.ar    1  UNL1       -0.0732
     29 N          12.3465   -9.7748   -1.1851 N.ar    1  UNL1       -0.1406
     30 C          12.9213   -8.5639   -1.0391 C.ar    1  UNL1       -0.0720
     31 C          14.3108   -8.3670   -0.9616 C.ar    1  UNL1       -0.1739
     32 H          22.5736   -7.6842    0.9721 H       1  UNL1        0.1305
     33 H          23.6443   -7.9338   -0.5117 H       1  UNL1        0.1241
     34 H          24.5348   -1.9558   -1.2453 H       1  UNL1        0.1555
     35 H          26.6125   -2.8194   -2.3511 H       1  UNL1        0.1402
     36 H          27.0849   -5.2408   -2.4794 H       1  UNL1        0.1377
     37 H          25.5249   -6.9277   -1.5078 H       1  UNL1        0.1393
     38 H          22.6661   -9.7442    0.0316 H       1  UNL1        0.0919
     39 H          21.2024  -10.2596    0.9733 H       1  UNL1        0.0967
     40 H          21.4367  -12.7291    0.7893 H       1  UNL1        0.1537
     41 H          21.5302  -14.6357   -1.0393 H       1  UNL1        0.1745
     42 H          21.6206  -10.5058   -2.9530 H       1  UNL1        0.1810
     43 H          19.3011  -10.8688    0.4738 H       1  UNL1        0.1380
     44 H          16.8725  -11.0682    0.3377 H       1  UNL1        0.1360
     45 H          16.6890   -7.5863   -2.2134 H       1  UNL1        0.1396
     46 H          19.1099   -7.3225   -2.0830 H       1  UNL1        0.1730
     47 H          15.1893  -11.6521   -1.2428 H       1  UNL1        0.1444
     48 H          12.6736  -11.8193   -1.3767 H       1  UNL1        0.1572
     49 H          12.2256   -7.7081   -0.9798 H       1  UNL1        0.1590
     50 H          14.7236   -7.3563   -0.8426 H       1  UNL1        0.1471
@<TRIPOS>BOND
     1    42    19    1
     2    18    19   ar
     3    18    17   ar
     4    36    10    1
     5    35     9    1
     6    19    15   ar
     7    45    24    1
     8    46    25    1
     9    10     9   ar
    10    10    11   ar
    11     9     8   ar
    12     1     2    2
    13    24    25   ar
    14    24    23   ar
    15    25    20   ar
    16    37    11    1
    17    11    12   ar
    18    48    28    1
    19     8    34    1
    20     8     7   ar
    21    28    29   ar
    22    28    27   ar
    23    47    27    1
    24    17    41    1
    25    17    16   ar
    26    29    30   ar
    27    27    26   ar
    28    30    49    1
    29    30    31   ar
    30    26    31   ar
    31    26    23    1
    32    31    50    1
    33     2    13   am
    34     2     3    1
    35    23    22   ar
    36    15    16   ar
    37    15    14    1
    38    12     7   ar
    39    12     4   ar
    40    20    13    1
    41    20    21   ar
    42     7     6   ar
    43    13    14    1
    44    33     3    1
    45    16    40    1
    46    22    21   ar
    47    22    44    1
    48    21    43    1
    49     3     4    1
    50     3    32    1
    51     4     5   ar
    52    14    38    1
    53    14    39    1
    54     6     5   ar
