@<TRIPOS>MOLECULE
C:\Users\Asus\Downloads\Iniciação científica\Pre-qsarmodeling\Arquivos saída MOPAC\Molecula11.out
 52 56 0 0 0
SMALL
MULLIKEN_CHARGES

@<TRIPOS>ATOM
      1 O          20.8936   -6.6639   -0.2497 O.2     1  UNL1       -0.3164
      2 C          21.4919   -7.6694    0.1621 C.2     1  UNL1        0.2841
      3 C          23.0023   -7.6488    0.4623 C.3     1  UNL1       -0.0184
      4 N          23.6677   -6.4083    0.1640 N.ar    1  UNL1       -0.1935
      5 N          23.4403   -5.2417    0.8588 N.ar    1  UNL1        0.0623
      6 N          23.8355   -4.2294    0.2338 N.ar    1  UNL1       -0.0548
      7 C          24.3338   -4.6266   -1.0511 C.ar    1  UNL1       -0.1235
      8 C          24.8893   -3.9262   -2.1204 C.ar    1  UNL1       -0.0425
      9 C          25.2937   -4.6632   -3.2294 C.ar    1  UNL1       -0.1552
     10 C          25.1618   -6.0601   -3.2780 C.ar    1  UNL1       -0.0952
     11 C          24.6144   -6.7885   -2.2260 C.ar    1  UNL1       -0.1294
     12 C          24.1926   -6.0670   -1.1096 C.ar    1  UNL1       -0.0185
     13 N          20.8201   -8.8752    0.4078 N.am    1  UNL1       -0.2895
     14 C          21.5636  -10.0736    0.7330 C.3     1  UNL1        0.0337
     15 C          22.3110  -10.7161   -0.3845 C.ar    1  UNL1       -0.1574
     16 C          23.5019  -11.4817   -0.1468 C.ar    1  UNL1       -0.1525
     17 C          23.9944  -12.0204   -1.3141 C.ar    1  UNL1       -0.4414
     18 S          23.0508  -11.6095   -2.6289 S.2     1  UNL1        0.5923
     19 C          21.9721  -10.7202   -1.7234 C.ar    1  UNL1       -0.4374
     20 C          19.4250   -8.9965    0.1809 C.ar    1  UNL1        0.0873
     21 C          18.8819  -10.1883   -0.3512 C.ar    1  UNL1       -0.1825
     22 C          17.5094  -10.3225   -0.5312 C.ar    1  UNL1       -0.0885
     23 C          16.6453   -9.2764   -0.2011 C.ar    1  UNL1       -0.1378
     24 C          17.1725   -8.0924    0.3273 C.ar    1  UNL1       -0.0593
     25 C          18.5416   -7.9461    0.5171 C.ar    1  UNL1       -0.1365
     26 C          15.1666   -9.3752   -0.3586 C.2     1  UNL1        0.3546
     27 O          14.3880   -8.8158    0.4399 O.2     1  UNL1       -0.3617
     28 N          14.6906  -10.0987   -1.4378 N.am    1  UNL1       -0.3532
     29 C          13.3052  -10.2674   -1.6867 C.3     1  UNL1       -0.0203
     30 C          12.7425  -11.5870   -2.1810 C.3     1  UNL1       -0.2355
     31 C          12.7605  -10.3970   -3.0959 C.3     1  UNL1       -0.2316
     32 H          23.1429   -7.8588    1.5633 H       1  UNL1        0.1363
     33 H          23.5046   -8.4573   -0.1447 H       1  UNL1        0.1341
     34 H          25.0022   -2.8334   -2.0836 H       1  UNL1        0.1550
     35 H          25.7302   -4.1396   -4.0936 H       1  UNL1        0.1393
     36 H          25.5025   -6.5956   -4.1779 H       1  UNL1        0.1362
     37 H          24.5200   -7.8809   -2.2758 H       1  UNL1        0.1409
     38 H          22.2962   -9.8232    1.5576 H       1  UNL1        0.0957
     39 H          20.8435  -10.8355    1.1592 H       1  UNL1        0.1199
     40 H          23.9407  -11.6130    0.8446 H       1  UNL1        0.1574
     41 H          24.8846  -12.6427   -1.3958 H       1  UNL1        0.1771
     42 H          21.1108  -10.2105   -2.1573 H       1  UNL1        0.1842
     43 H          19.5392  -11.0269   -0.6320 H       1  UNL1        0.1421
     44 H          17.1194  -11.2738   -0.9250 H       1  UNL1        0.1337
     45 H          16.4868   -7.2743    0.6061 H       1  UNL1        0.1622
     46 H          18.9310   -6.9954    0.9181 H       1  UNL1        0.1676
     47 H          15.3311  -10.5146   -2.0694 H       1  UNL1        0.2234
     48 H          12.6963   -9.6920   -0.9486 H       1  UNL1        0.1626
     49 H          13.4209  -12.4306   -2.3967 H       1  UNL1        0.1080
     50 H          11.7835  -11.9310   -1.7557 H       1  UNL1        0.1167
     51 H          11.8123   -9.8838   -3.3334 H       1  UNL1        0.1168
     52 H          13.4519  -10.3977   -3.9566 H       1  UNL1        0.1092
@<TRIPOS>BOND
     1    36    10    1
     2    35     9    1
     3    52    31    1
     4    51    31    1
     5    10     9   ar
     6    10    11   ar
     7     9     8   ar
     8    31    30    1
     9    31    29    1
    10    18    19   ar
    11    18    17   ar
    12    49    30    1
    13    37    11    1
    14    11    12   ar
    15    30    50    1
    16    30    29    1
    17    42    19    1
    18     8    34    1
    19     8     7   ar
    20    47    28    1
    21    19    15   ar
    22    29    28    1
    23    29    48    1
    24    28    26   am
    25    41    17    1
    26    17    16   ar
    27    12     7   ar
    28    12     4   ar
    29     7     6   ar
    30    44    22    1
    31    43    21    1
    32    22    21   ar
    33    22    23   ar
    34    15    16   ar
    35    15    14    1
    36    26    23    1
    37    26    27    2
    38    21    20   ar
    39     1     2    2
    40    23    24   ar
    41    16    40    1
    42    33     3    1
    43     2    13   am
    44     2     3    1
    45     4     3    1
    46     4     5   ar
    47    20    13    1
    48    20    25   ar
    49     6     5   ar
    50    24    25   ar
    51    24    45    1
    52    13    14    1
    53     3    32    1
    54    25    46    1
    55    14    39    1
    56    14    38    1
