@<TRIPOS>MOLECULE
C:\Users\Asus\Downloads\Iniciação científica\Pre-qsarmodeling\Arquivos saída MOPAC\Molecula13.out
 53 57 0 0 0
SMALL
MULLIKEN_CHARGES

@<TRIPOS>ATOM
      1 O          20.7391   -6.7529    0.1323 O.2     1  UNL1       -0.3241
      2 C          21.3849   -7.7922    0.3453 C.2     1  UNL1        0.2758
      3 C          22.9044   -7.7691    0.5889 C.3     1  UNL1       -0.0223
      4 N          23.5248   -6.4778    0.4457 N.ar    1  UNL1       -0.1906
      5 N          23.3705   -5.4589    1.3590 N.ar    1  UNL1        0.0618
      6 N          23.6684   -4.3391    0.8804 N.ar    1  UNL1       -0.0556
      7 C          24.0004   -4.4862   -0.5073 C.ar    1  UNL1       -0.1231
      8 C          24.3984   -3.5894   -1.4973 C.ar    1  UNL1       -0.0425
      9 C          24.6539   -4.1049   -2.7648 C.ar    1  UNL1       -0.1550
     10 C          24.5279   -5.4746   -3.0462 C.ar    1  UNL1       -0.0948
     11 C          24.1391   -6.3957   -2.0780 C.ar    1  UNL1       -0.1315
     12 C          23.8709   -5.8978   -0.8033 C.ar    1  UNL1       -0.0198
     13 N          20.7512   -9.0364    0.4230 N.am    1  UNL1       -0.2864
     14 C          21.5052  -10.2685    0.4706 C.3     1  UNL1        0.0372
     15 C          22.1198  -10.7346   -0.8045 C.ar    1  UNL1       -0.1448
     16 C          22.7305  -12.0313   -0.8918 C.ar    1  UNL1       -0.1509
     17 C          23.2205  -12.2726   -2.1554 C.ar    1  UNL1       -0.4366
     18 S          22.9449  -10.9838   -3.1797 S.2     1  UNL1        0.5901
     19 C          22.1873  -10.0679   -2.0115 C.ar    1  UNL1       -0.4468
     20 C          19.3650   -9.1407    0.1090 C.ar    1  UNL1        0.0245
     21 C          18.4968   -9.8423    0.9688 C.ar    1  UNL1       -0.1023
     22 C          17.1419   -9.9376    0.6829 C.ar    1  UNL1       -0.1685
     23 C          16.5977   -9.3322   -0.4729 C.ar    1  UNL1        0.0934
     24 C          17.4731   -8.6426   -1.3405 C.ar    1  UNL1       -0.1824
     25 C          18.8266   -8.5458   -1.0486 C.ar    1  UNL1       -0.0842
     26 N          15.2230   -9.4271   -0.7308 N.pl3   1  UNL1       -0.8205
     27 S          14.3046   -8.5905   -1.7933 S.O2    1  UNL1        2.8469
     28 O          14.9787   -8.3787   -3.0093 O.2     1  UNL1       -0.9301
     29 O          13.0627   -9.2573   -1.8611 O.2     1  UNL1       -0.9265
     30 C          14.0510   -7.1048   -1.0339 C.3     1  UNL1       -0.9330
     31 C          14.3994   -5.7883   -1.6998 C.3     1  UNL1       -0.1281
     32 C          15.1210   -6.1979   -0.4669 C.3     1  UNL1       -0.1288
     33 H          23.0996   -8.1374    1.6382 H       1  UNL1        0.1394
     34 H          23.3972   -8.4620   -0.1547 H       1  UNL1        0.1316
     35 H          24.5034   -2.5168   -1.2802 H       1  UNL1        0.1548
     36 H          24.9629   -3.4224   -3.5712 H       1  UNL1        0.1395
     37 H          24.7413   -5.8305   -4.0663 H       1  UNL1        0.1366
     38 H          24.0451   -7.4649   -2.3088 H       1  UNL1        0.1395
     39 H          22.3247  -10.1566    1.2417 H       1  UNL1        0.0957
     40 H          20.8112  -11.0837    0.8366 H       1  UNL1        0.1139
     41 H          22.7832  -12.7234   -0.0492 H       1  UNL1        0.1560
     42 H          23.7248  -13.1839   -2.4735 H       1  UNL1        0.1760
     43 H          21.7813   -9.0765   -2.2126 H       1  UNL1        0.1752
     44 H          18.8826  -10.3192    1.8839 H       1  UNL1        0.1390
     45 H          16.4920  -10.4938    1.3766 H       1  UNL1        0.1363
     46 H          17.1018   -8.1846   -2.2744 H       1  UNL1        0.1690
     47 H          19.4791   -7.9728   -1.7283 H       1  UNL1        0.1498
     48 H          14.7698  -10.1010   -0.1501 H       1  UNL1        0.2502
     49 H          13.0914   -7.1060   -0.4650 H       1  UNL1        0.1802
     50 H          14.9205   -5.8311   -2.6770 H       1  UNL1        0.1391
     51 H          13.6566   -4.9717   -1.6558 H       1  UNL1        0.1235
     52 H          14.9118   -5.6793    0.4864 H       1  UNL1        0.1240
     53 H          16.1763   -6.5288   -0.5340 H       1  UNL1        0.1302
@<TRIPOS>BOND
     1    37    10    1
     2    36     9    1
     3    18    17   ar
     4    18    19   ar
     5    10     9   ar
     6    10    11   ar
     7    28    27    2
     8     9     8   ar
     9    50    31    1
    10    42    17    1
    11    38    11    1
    12    46    24    1
    13    43    19    1
    14    17    16   ar
    15    11    12   ar
    16    19    15   ar
    17    29    27    2
    18    27    30    1
    19    27    26    1
    20    47    25    1
    21    31    51    1
    22    31    30    1
    23    31    32    1
    24     8    35    1
    25     8     7   ar
    26    24    25   ar
    27    24    23   ar
    28    25    20   ar
    29    30    32    1
    30    30    49    1
    31    16    15   ar
    32    16    41    1
    33    15    14    1
    34    12     7   ar
    35    12     4   ar
    36    26    23    1
    37    26    48    1
    38    53    32    1
    39     7     6   ar
    40    23    22   ar
    41    32    52    1
    42    34     3    1
    43    20    13    1
    44    20    21   ar
    45     1     2    2
    46     2    13   am
    47     2     3    1
    48    13    14    1
    49     4     3    1
    50     4     5   ar
    51    14    40    1
    52    14    39    1
    53     3    33    1
    54    22    21   ar
    55    22    45    1
    56     6     5   ar
    57    21    44    1
