@<TRIPOS>MOLECULE
C:\Users\Asus\Downloads\Iniciação científica\Pre-qsarmodeling\Arquivos saída MOPAC\Molecula12.out
 49 52 0 0 0
SMALL
MULLIKEN_CHARGES

@<TRIPOS>ATOM
      1 C          14.4294  -10.1313   -4.0010 C.3     1  UNL1       -0.9509
      2 S          13.8156  -10.6644   -2.5102 S.O2    1  UNL1        2.8255
      3 O          14.2576  -11.9841   -2.3134 O.2     1  UNL1       -0.9293
      4 O          12.4225  -10.4500   -2.4922 O.2     1  UNL1       -0.9290
      5 N          14.4765   -9.6287   -1.4404 N.pl3   1  UNL1       -0.8279
      6 C          15.8276   -9.4954   -1.0841 C.ar    1  UNL1        0.0736
      7 C          16.2800   -8.3170   -0.4505 C.ar    1  UNL1       -0.1570
      8 C          17.6096   -8.1679   -0.0826 C.ar    1  UNL1       -0.0911
      9 C          18.5472   -9.1887   -0.3437 C.ar    1  UNL1        0.0335
     10 C          18.0997  -10.3579   -0.9925 C.ar    1  UNL1       -0.1238
     11 C          16.7657  -10.5180   -1.3418 C.ar    1  UNL1       -0.1761
     12 N          19.9006   -9.0567    0.0696 N.am    1  UNL1       -0.2848
     13 C          20.5782  -10.2516    0.5186 C.3     1  UNL1        0.0344
     14 C          21.3938  -10.9917   -0.4864 C.ar    1  UNL1       -0.1508
     15 C          21.6575  -10.5858   -1.8347 C.ar    1  UNL1       -0.1555
     16 C          22.4481  -11.5050   -2.4911 C.ar    1  UNL1       -0.4481
     17 S          22.8437  -12.7919   -1.5081 S.2     1  UNL1        0.6099
     18 C          22.0049  -12.2006   -0.2002 C.ar    1  UNL1       -0.4510
     19 C          20.6003   -7.8633   -0.1399 C.2     1  UNL1        0.2794
     20 O          20.0432   -6.8596   -0.6125 O.2     1  UNL1       -0.3229
     21 C          22.0800   -7.8485    0.2866 C.3     1  UNL1       -0.0190
     22 N          22.7970   -6.6453   -0.0376 N.ar    1  UNL1       -0.1940
     23 N          22.6461   -5.4563    0.6345 N.ar    1  UNL1        0.0621
     24 N          23.1433   -4.4897    0.0074 N.ar    1  UNL1       -0.0587
     25 C          23.6481   -4.9482   -1.2530 C.ar    1  UNL1       -0.1241
     26 C          24.2948   -4.3157   -2.3142 C.ar    1  UNL1       -0.0427
     27 C          24.6628   -5.1018   -3.4013 C.ar    1  UNL1       -0.1559
     28 C          24.4029   -6.4818   -3.4400 C.ar    1  UNL1       -0.0947
     29 C          23.7645   -7.1437   -2.3963 C.ar    1  UNL1       -0.1312
     30 C          23.3868   -6.3721   -1.2968 C.ar    1  UNL1       -0.0165
     31 H          15.5451  -10.0703   -4.0325 H       1  UNL1        0.1570
     32 H          14.1348  -10.8380   -4.8184 H       1  UNL1        0.1620
     33 H          14.0455   -9.1272   -4.3054 H       1  UNL1        0.1567
     34 H          13.8872   -8.9665   -0.9822 H       1  UNL1        0.2545
     35 H          15.5775   -7.4969   -0.2337 H       1  UNL1        0.1396
     36 H          17.9326   -7.2281    0.3964 H       1  UNL1        0.1630
     37 H          18.8097  -11.1679   -1.2302 H       1  UNL1        0.1475
     38 H          16.4535  -11.4677   -1.8102 H       1  UNL1        0.1633
     39 H          21.2530   -9.9729    1.3833 H       1  UNL1        0.0958
     40 H          19.7979  -10.9617    0.9283 H       1  UNL1        0.1184
     41 H          21.2646   -9.6673   -2.2776 H       1  UNL1        0.1626
     42 H          22.7805  -11.4234   -3.5250 H       1  UNL1        0.1762
     43 H          21.9500  -12.7190    0.7563 H       1  UNL1        0.1758
     44 H          22.1202   -7.9906    1.4064 H       1  UNL1        0.1382
     45 H          22.6131   -8.7037   -0.2246 H       1  UNL1        0.1339
     46 H          24.5029   -3.2366   -2.2871 H       1  UNL1        0.1545
     47 H          25.1705   -4.6325   -4.2578 H       1  UNL1        0.1391
     48 H          24.7135   -7.0566   -4.3264 H       1  UNL1        0.1360
     49 H          23.5616   -8.2223   -2.4383 H       1  UNL1        0.1425
@<TRIPOS>BOND
     1    32     1    1
     2    48    28    1
     3    33     1    1
     4    47    27    1
     5    31     1    1
     6     1     2    1
     7    42    16    1
     8    28    27   ar
     9    28    29   ar
    10    27    26   ar
    11     2     4    2
    12     2     3    2
    13     2     5    1
    14    16    15   ar
    15    16    17   ar
    16    49    29    1
    17    29    30   ar
    18    26    46    1
    19    26    25   ar
    20    41    15    1
    21    15    14   ar
    22    38    11    1
    23    17    18   ar
    24     5     6    1
    25     5    34    1
    26    11     6   ar
    27    11    10   ar
    28    30    25   ar
    29    30    22   ar
    30    25    24   ar
    31    37    10    1
    32     6     7   ar
    33    10     9   ar
    34    20    19    2
    35    14    18   ar
    36    14    13    1
    37     7    35    1
    38     7     8   ar
    39     9     8   ar
    40     9    12    1
    41    45    21    1
    42    18    43    1
    43    19    12   am
    44    19    21    1
    45     8    36    1
    46    22    21    1
    47    22    23   ar
    48    24    23   ar
    49    12    13    1
    50    21    44    1
    51    13    40    1
    52    13    39    1
