@<TRIPOS>MOLECULE
C:\Users\Asus\Downloads\Iniciação científica\Pre-qsarmodeling\Arquivos saída MOPAC\molecula17.out
 48 52 0 0 0
SMALL
MULLIKEN_CHARGES

@<TRIPOS>ATOM
      1 S          13.9090   -8.0090   -1.9180 S.2     1  UNL1        0.5738
      2 C          14.9749   -6.7267   -1.9331 C.ar    1  UNL1       -0.4377
      3 C          15.0054   -9.0692   -1.2480 C.ar    1  UNL1       -0.4632
      4 C          16.2036   -7.0719   -1.4267 C.ar    1  UNL1       -0.1709
      5 C          16.2347   -8.4633   -1.0130 C.ar    1  UNL1        0.0326
      6 N          17.3849   -9.0609   -0.4638 N.am    1  UNL1       -0.2159
      7 C          20.7931   -6.5434   -0.1147 C.ar    1  UNL1       -0.0136
      8 C          20.6723   -7.4326   -1.1916 C.ar    1  UNL1       -0.0980
      9 C          19.7801   -6.5199    0.8572 C.ar    1  UNL1       -0.1280
     10 C          19.5641   -8.2660   -1.3097 C.ar    1  UNL1       -0.1202
     11 C          18.6666   -7.3445    0.7504 C.ar    1  UNL1       -0.1326
     12 C          18.5422   -8.2297   -0.3402 C.ar    1  UNL1        0.0244
     13 C          17.4166  -10.3843   -0.0262 C.2     1  UNL1        0.2902
     14 C          18.7391  -10.9415    0.5433 C.3     1  UNL1       -0.0124
     15 O          16.4094  -11.1125   -0.0499 O.2     1  UNL1       -0.3359
     16 C          18.7119  -13.4754    0.4140 C.ar    1  UNL1       -0.0083
     17 N          19.1245  -12.1997   -0.0406 N.ar    1  UNL1       -0.1965
     18 C          19.0765  -14.3616   -0.6725 C.ar    1  UNL1       -0.1295
     19 N          19.6129  -12.3323   -1.3162 N.ar    1  UNL1        0.0505
     20 N          19.6347  -13.5298   -1.6949 N.ar    1  UNL1       -0.0617
     21 C          18.1368  -13.9681    1.5869 C.ar    1  UNL1       -0.1209
     22 C          17.9263  -15.3404    1.6565 C.ar    1  UNL1       -0.0950
     23 C          18.8590  -15.7359   -0.5670 C.ar    1  UNL1       -0.0446
     24 C          18.2793  -16.2052    0.6060 C.ar    1  UNL1       -0.1566
     25 C          24.1411   -3.9332    0.2288 C.ar    1  UNL1        0.0173
     26 N          24.3188   -5.1768   -0.3185 N.ar    1  UNL1       -0.2794
     27 C          22.9075   -3.5083    0.6584 C.ar    1  UNL1       -0.2536
     28 C          23.2495   -6.0855   -0.4695 C.ar    1  UNL1        0.3289
     29 C          21.7905   -4.3821    0.5357 C.ar    1  UNL1       -0.0266
     30 C          21.9286   -5.6363    0.0012 C.ar    1  UNL1       -0.1441
     31 O          23.5179   -7.1873   -0.9869 O.2     1  UNL1       -0.3618
     32 H          14.7087   -5.7390   -2.3071 H       1  UNL1        0.1709
     33 H          14.7530  -10.1104   -1.0361 H       1  UNL1        0.2060
     34 H          17.0638   -6.4045   -1.3408 H       1  UNL1        0.1601
     35 H          21.4709   -7.4846   -1.9513 H       1  UNL1        0.1679
     36 H          19.8651   -5.8454    1.7232 H       1  UNL1        0.1351
     37 H          19.4957   -8.9557   -2.1672 H       1  UNL1        0.1597
     38 H          17.8786   -7.2941    1.5185 H       1  UNL1        0.1457
     39 H          19.5946  -10.2188    0.4090 H       1  UNL1        0.1418
     40 H          18.5659  -11.1109    1.6448 H       1  UNL1        0.1278
     41 H          17.8509  -13.3014    2.4110 H       1  UNL1        0.1436
     42 H          17.4627  -15.7641    2.5612 H       1  UNL1        0.1365
     43 H          19.1342  -16.4153   -1.3861 H       1  UNL1        0.1527
     44 H          18.0858  -17.2829    0.7172 H       1  UNL1        0.1377
     45 H          25.0420   -3.2967    0.3025 H       1  UNL1        0.1544
     46 H          25.2215   -5.4634   -0.6302 H       1  UNL1        0.2507
     47 H          22.7778   -2.5087    1.0904 H       1  UNL1        0.1544
     48 H          20.8064   -4.0206    0.8766 H       1  UNL1        0.1441
@<TRIPOS>BOND
     1    32     2    1
     2    37    10    1
     3    35     8    1
     4     2     1   ar
     5     2     4   ar
     6     1     3   ar
     7    20    19   ar
     8    20    18   ar
     9     4    34    1
    10     4     5   ar
    11    43    23    1
    12    19    17   ar
    13    10     8   ar
    14    10    12   ar
    15     3    33    1
    16     3     5   ar
    17     8     7   ar
    18     5     6    1
    19    31    28    2
    20    18    23   ar
    21    18    16   ar
    22    46    26    1
    23    23    24   ar
    24    28    26   ar
    25    28    30   ar
    26     6    12    1
    27     6    13   am
    28    12    11   ar
    29    26    25   ar
    30     7    30    1
    31     7     9   ar
    32    15    13    2
    33    17    16   ar
    34    17    14    1
    35    13    14    1
    36    30    29   ar
    37    25    45    1
    38    25    27   ar
    39    39    14    1
    40    16    21   ar
    41    29    27   ar
    42    29    48    1
    43    14    40    1
    44    24    44    1
    45    24    22   ar
    46    27    47    1
    47    11     9   ar
    48    11    38    1
    49     9    36    1
    50    21    22   ar
    51    21    41    1
    52    22    42    1
