@<TRIPOS>MOLECULE
C:\Users\Asus\Downloads\Iniciação científica\Pre-qsarmodeling\Arquivos saída MOPAC\Molecula18.out
 51 55 0 0 0
SMALL
MULLIKEN_CHARGES

@<TRIPOS>ATOM
      1 C          12.4815   -8.5731   -1.6989 C.3     1  UNL1       -0.0581
      2 N          13.7564   -9.2325   -1.5603 N.ar    1  UNL1       -0.1271
      3 C          14.9495   -8.5878   -1.2172 C.ar    1  UNL1       -0.1040
      4 C          15.9480   -9.5805   -1.1687 C.ar    1  UNL1       -0.1457
      5 C          15.2450  -10.8079   -1.4986 C.ar    1  UNL1       -0.1556
      6 N          13.9335  -10.5562   -1.7235 N.ar    1  UNL1       -0.0771
      7 C          17.3432   -9.4293   -0.8636 C.ar    1  UNL1        0.0035
      8 C          17.8218   -8.2808   -0.2150 C.ar    1  UNL1       -0.1166
      9 C          19.1683   -8.1371    0.0980 C.ar    1  UNL1       -0.1175
     10 C          20.0895   -9.1533   -0.2335 C.ar    1  UNL1        0.0519
     11 C          19.6121  -10.2994   -0.9070 C.ar    1  UNL1       -0.1601
     12 C          18.2630  -10.4315   -1.2082 C.ar    1  UNL1       -0.1129
     13 N          21.4591   -9.0479    0.1324 N.am    1  UNL1       -0.2876
     14 C          22.1417  -10.2615    0.5222 C.3     1  UNL1        0.0351
     15 C          22.9840  -10.9257   -0.5124 C.ar    1  UNL1       -0.1541
     16 C          24.0193  -11.8497   -0.1418 C.ar    1  UNL1       -0.1530
     17 C          24.6336  -12.3880   -1.2496 C.ar    1  UNL1       -0.4396
     18 S          23.9811  -11.7914   -2.6668 S.2     1  UNL1        0.5843
     19 C          22.8775  -10.8172   -1.8845 C.ar    1  UNL1       -0.4374
     20 C          22.1594   -7.8468   -0.0197 C.2     1  UNL1        0.2843
     21 O          21.6030   -6.8143   -0.4255 O.2     1  UNL1       -0.3220
     22 C          23.6488   -7.8671    0.3731 C.3     1  UNL1       -0.0168
     23 N          24.3494   -6.6250    0.1852 N.ar    1  UNL1       -0.1940
     24 N          24.1454   -5.5075    0.9567 N.ar    1  UNL1        0.0627
     25 N          24.6620   -4.4805    0.4520 N.ar    1  UNL1       -0.0614
     26 C          25.2451   -4.8140   -0.8131 C.ar    1  UNL1       -0.1250
     27 C          25.9439   -4.0778   -1.7694 C.ar    1  UNL1       -0.0434
     28 C          26.3901   -4.7543   -2.8997 C.ar    1  UNL1       -0.1567
     29 C          26.1562   -6.1276   -3.0816 C.ar    1  UNL1       -0.0953
     30 C          25.4693   -6.8917   -2.1444 C.ar    1  UNL1       -0.1298
     31 C          25.0090   -6.2308   -1.0044 C.ar    1  UNL1       -0.0144
     32 H          12.0429   -8.7883   -2.7100 H       1  UNL1        0.1024
     33 H          11.7709   -8.9391   -0.9099 H       1  UNL1        0.0979
     34 H          12.6340   -7.4687   -1.5832 H       1  UNL1        0.0932
     35 H          15.0046   -7.5133   -1.0476 H       1  UNL1        0.1778
     36 H          15.6588  -11.8145   -1.5613 H       1  UNL1        0.1803
     37 H          17.1190   -7.4796    0.0600 H       1  UNL1        0.1326
     38 H          19.5140   -7.2137    0.5910 H       1  UNL1        0.1590
     39 H          20.3079  -11.1015   -1.2023 H       1  UNL1        0.1386
     40 H          17.9122  -11.3342   -1.7314 H       1  UNL1        0.1343
     41 H          22.7921  -10.0326    1.4189 H       1  UNL1        0.0930
     42 H          21.3633  -11.0090    0.8648 H       1  UNL1        0.1199
     43 H          24.2664  -12.0836    0.8958 H       1  UNL1        0.1565
     44 H          25.4432  -13.1164   -1.2315 H       1  UNL1        0.1759
     45 H          22.1638  -10.1853   -2.4151 H       1  UNL1        0.1855
     46 H          23.7205   -8.1413    1.4667 H       1  UNL1        0.1340
     47 H          24.1729   -8.6515   -0.2471 H       1  UNL1        0.1332
     48 H          26.1320   -3.0038   -1.6288 H       1  UNL1        0.1538
     49 H          26.9425   -4.2017   -3.6749 H       1  UNL1        0.1384
     50 H          26.5278   -6.6128   -3.9977 H       1  UNL1        0.1359
     51 H          25.2958   -7.9647   -2.2972 H       1  UNL1        0.1411
@<TRIPOS>BOND
     1    50    29    1
     2    49    28    1
     3    29    28   ar
     4    29    30   ar
     5    28    27   ar
     6    32     1    1
     7    18    19   ar
     8    18    17   ar
     9    45    19    1
    10    51    30    1
    11    30    31   ar
    12    19    15   ar
    13    27    48    1
    14    27    26   ar
    15    40    12    1
    16     6     2   ar
    17     6     5   ar
    18     1    34    1
    19     1     2    1
    20     1    33    1
    21    36     5    1
    22     2     3   ar
    23     5     4   ar
    24    17    44    1
    25    17    16   ar
    26     3     4   ar
    27     3    35    1
    28    12    11   ar
    29    12     7   ar
    30    39    11    1
    31     4     7    1
    32    31    26   ar
    33    31    23   ar
    34    11    10   ar
    35     7     8   ar
    36    26    25   ar
    37    15    16   ar
    38    15    14    1
    39    21    20    2
    40    47    22    1
    41    10     9   ar
    42    10    13    1
    43     8    37    1
    44     8     9   ar
    45    16    43    1
    46    20    13   am
    47    20    22    1
    48     9    38    1
    49    13    14    1
    50    23    22    1
    51    23    24   ar
    52    22    46    1
    53    25    24   ar
    54    14    42    1
    55    14    41    1
