@<TRIPOS>MOLECULE
C:\Users\Asus\Downloads\Iniciação científica\Pre-qsarmodeling\Arquivos saída MOPAC\Molecula16.out
 54 58 0 0 0
SMALL
MULLIKEN_CHARGES

@<TRIPOS>ATOM
      1 C          15.6213  -11.3554    1.9065 C.3     1  UNL1       -0.0638
      2 O          16.0020  -10.8230    0.6370 O.3     1  UNL1       -0.2041
      3 C          15.0089  -10.2837   -0.1558 C.ar    1  UNL1        0.1365
      4 N          13.7042  -10.4027    0.2038 N.ar    1  UNL1       -0.2052
      5 C          12.7880   -9.8699   -0.6233 C.ar    1  UNL1       -0.0338
      6 C          13.1085   -9.2101   -1.8199 C.ar    1  UNL1       -0.2169
      7 C          14.4531   -9.0897   -2.1718 C.ar    1  UNL1       -0.0629
      8 C          15.4494   -9.6222   -1.3435 C.ar    1  UNL1       -0.0937
      9 C          16.8564   -9.4774   -1.6930 C.ar    1  UNL1       -0.0386
     10 C          17.3316   -8.2608   -2.2031 C.ar    1  UNL1       -0.1058
     11 C          18.6694   -8.0962   -2.5414 C.ar    1  UNL1       -0.1272
     12 C          19.5838   -9.1585   -2.3715 C.ar    1  UNL1        0.0637
     13 C          19.1021  -10.3847   -1.8630 C.ar    1  UNL1       -0.1713
     14 C          17.7602  -10.5354   -1.5345 C.ar    1  UNL1       -0.0859
     15 N          20.9519   -9.0061   -2.7236 N.am    1  UNL1       -0.2880
     16 C          21.6422  -10.1536   -3.2692 C.3     1  UNL1        0.0358
     17 C          22.5193  -10.9206   -2.3396 C.ar    1  UNL1       -0.1553
     18 C          23.6748  -11.6256   -2.8196 C.ar    1  UNL1       -0.1536
     19 C          24.3006  -12.3163   -1.8067 C.ar    1  UNL1       -0.4404
     20 S          23.5182  -12.1091   -0.3457 S.2     1  UNL1        0.5854
     21 C          22.3414  -11.1163   -0.9845 C.ar    1  UNL1       -0.4344
     22 C          21.6460   -7.8291   -2.4227 C.2     1  UNL1        0.2826
     23 O          21.0810   -6.8522   -1.9056 O.2     1  UNL1       -0.3218
     24 C          23.1389   -7.7917   -2.7988 C.3     1  UNL1       -0.0209
     25 N          23.8452   -6.6103   -2.3773 N.ar    1  UNL1       -0.1910
     26 N          23.6842   -5.3804   -2.9730 N.ar    1  UNL1        0.0595
     27 N          24.1074   -4.4429   -2.2554 N.ar    1  UNL1       -0.0574
     28 C          24.5550   -4.9697   -0.9992 C.ar    1  UNL1       -0.1241
     29 C          25.1081   -4.3873    0.1402 C.ar    1  UNL1       -0.0437
     30 C          25.4383   -5.2310    1.1963 C.ar    1  UNL1       -0.1555
     31 C          25.2369   -6.6190    1.1258 C.ar    1  UNL1       -0.0957
     32 C          24.6962   -7.2313   -0.0007 C.ar    1  UNL1       -0.1276
     33 C          24.3489   -6.4017   -1.0670 C.ar    1  UNL1       -0.0167
     34 H          14.9439  -12.2330    1.7784 H       1  UNL1        0.0843
     35 H          16.6015  -11.6686    2.3485 H       1  UNL1        0.0973
     36 H          15.1347  -10.5716    2.5342 H       1  UNL1        0.0855
     37 H          11.7385   -9.9841   -0.2958 H       1  UNL1        0.1607
     38 H          12.3170   -8.7991   -2.4585 H       1  UNL1        0.1466
     39 H          14.7403   -8.5775   -3.1032 H       1  UNL1        0.1445
     40 H          16.6392   -7.4136   -2.3280 H       1  UNL1        0.1369
     41 H          19.0150   -7.1196   -2.9183 H       1  UNL1        0.1608
     42 H          19.7858  -11.2356   -1.7132 H       1  UNL1        0.1381
     43 H          17.4052  -11.4947   -1.1250 H       1  UNL1        0.1472
     44 H          20.8681  -10.8684   -3.6829 H       1  UNL1        0.1195
     45 H          22.2680   -9.8047   -4.1447 H       1  UNL1        0.0921
     46 H          23.9960  -11.6041   -3.8631 H       1  UNL1        0.1563
     47 H          25.1940  -12.9293   -1.9182 H       1  UNL1        0.1762
     48 H          21.5390  -10.6859   -0.3834 H       1  UNL1        0.1861
     49 H          23.6585   -8.6781   -2.3311 H       1  UNL1        0.1341
     50 H          23.2150   -7.8615   -3.9234 H       1  UNL1        0.1360
     51 H          25.2736   -3.3020    0.1961 H       1  UNL1        0.1538
     52 H          25.8678   -4.8012    2.1141 H       1  UNL1        0.1384
     53 H          25.5135   -7.2417    1.9912 H       1  UNL1        0.1359
     54 H          24.5453   -8.3177   -0.0445 H       1  UNL1        0.1414
@<TRIPOS>BOND
     1    45    16    1
     2    50    24    1
     3    46    18    1
     4    44    16    1
     5    16    15    1
     6    16    17    1
     7    39     7    1
     8    26    25   ar
     9    26    27   ar
    10    41    11    1
    11    18    17   ar
    12    18    19   ar
    13    24    22    1
    14    24    25    1
    15    24    49    1
    16    15    22   am
    17    15    12    1
    18    11    12   ar
    19    11    10   ar
    20    38     6    1
    21    22    23    2
    22    25    33   ar
    23    12    13   ar
    24    17    21   ar
    25    40    10    1
    26    27    28   ar
    27    10     9   ar
    28     7     6   ar
    29     7     8   ar
    30    47    19    1
    31    13    42    1
    32    13    14   ar
    33     6     5   ar
    34    19    20   ar
    35     9    14   ar
    36     9     8    1
    37    14    43    1
    38     8     3   ar
    39    33    28   ar
    40    33    32   ar
    41    28    29   ar
    42    21    48    1
    43    21    20   ar
    44     5    37    1
    45     5     4   ar
    46     3     4   ar
    47     3     2    1
    48    54    32    1
    49    32    31   ar
    50    29    51    1
    51    29    30   ar
    52     2     1    1
    53    31    30   ar
    54    31    53    1
    55    30    52    1
    56    34     1    1
    57     1    35    1
    58     1    36    1
