@<TRIPOS>MOLECULE
C:\Users\Asus\Downloads\Iniciação científica\Pre-qsarmodeling\Arquivos saída MOPAC\Molecula23.out
 50 54 0 0 0
SMALL
MULLIKEN_CHARGES

@<TRIPOS>ATOM
      1 O          21.1457   -6.8816    0.0504 O.2     1  UNL1       -0.3178
      2 C          21.7584   -7.9078    0.3846 C.2     1  UNL1        0.2784
      3 C          23.2539   -7.8707    0.7534 C.3     1  UNL1       -0.0170
      4 N          23.9043   -6.6042    0.5486 N.ar    1  UNL1       -0.1950
      5 N          23.7352   -5.5186    1.3759 N.ar    1  UNL1        0.0615
      6 N          24.1402   -4.4532    0.8522 N.ar    1  UNL1       -0.0567
      7 C          24.5841   -4.7180   -0.4848 C.ar    1  UNL1       -0.1236
      8 C          25.1252   -3.9177   -1.4900 C.ar    1  UNL1       -0.0420
      9 C          25.4599   -4.5357   -2.6907 C.ar    1  UNL1       -0.1555
     10 C          25.2728   -5.9128   -2.8928 C.ar    1  UNL1       -0.0935
     11 C          24.7445   -6.7401   -1.9066 C.ar    1  UNL1       -0.1299
     12 C          24.3952   -6.1385   -0.6975 C.ar    1  UNL1       -0.0161
     13 N          21.1151   -9.1468    0.4877 N.am    1  UNL1       -0.2864
     14 C          21.8641  -10.3504    0.7740 C.3     1  UNL1        0.0001
     15 C          22.6469  -10.9350   -0.3815 C.3     1  UNL1       -0.2080
     16 C          23.7588  -11.9008   -0.0649 C.3     1  UNL1       -0.2080
     17 C          22.4950  -12.4008   -0.6960 C.3     1  UNL1       -0.2039
     18 C          19.7582   -9.2975    0.0934 C.ar    1  UNL1        0.0641
     19 C          19.3458  -10.4268   -0.6480 C.ar    1  UNL1       -0.1627
     20 C          18.0126  -10.5865   -1.0063 C.ar    1  UNL1       -0.1047
     21 C          17.0518   -9.6337   -0.6441 C.ar    1  UNL1       -0.0497
     22 C          17.4585   -8.5125    0.0913 C.ar    1  UNL1       -0.1027
     23 C          18.7880   -8.3393    0.4585 C.ar    1  UNL1       -0.1213
     24 C          15.6559   -9.8000   -1.0260 C.ar    1  UNL1       -0.0830
     25 C          15.2899  -10.2358   -2.3079 C.ar    1  UNL1       -0.0849
     26 C          13.9371  -10.3707   -2.6191 C.ar    1  UNL1       -0.1807
     27 C          12.9845  -10.0654   -1.6305 C.ar    1  UNL1       -0.0722
     28 N          13.3112   -9.6451   -0.3923 N.ar    1  UNL1       -0.1369
     29 C          14.6185   -9.5171   -0.1058 C.ar    1  UNL1       -0.0617
     30 H          23.3476   -8.1378    1.8471 H       1  UNL1        0.1387
     31 H          23.8054   -8.6327    0.1304 H       1  UNL1        0.1255
     32 H          25.2798   -2.8404   -1.3346 H       1  UNL1        0.1549
     33 H          25.8833   -3.9306   -3.5069 H       1  UNL1        0.1394
     34 H          25.5521   -6.3505   -3.8640 H       1  UNL1        0.1367
     35 H          24.6062   -7.8158   -2.0752 H       1  UNL1        0.1382
     36 H          22.5817  -10.1298    1.6183 H       1  UNL1        0.0906
     37 H          21.1374  -11.1266    1.1567 H       1  UNL1        0.1109
     38 H          22.7903  -10.2421   -1.2344 H       1  UNL1        0.1287
     39 H          24.6838  -11.8609   -0.6672 H       1  UNL1        0.1153
     40 H          23.9663  -12.1504    0.9912 H       1  UNL1        0.1141
     41 H          21.7972  -13.0082   -0.0915 H       1  UNL1        0.1146
     42 H          22.5104  -12.7230   -1.7523 H       1  UNL1        0.1163
     43 H          20.0795  -11.1917   -0.9518 H       1  UNL1        0.1394
     44 H          17.7086  -11.4755   -1.5803 H       1  UNL1        0.1351
     45 H          16.7168   -7.7497    0.3761 H       1  UNL1        0.1420
     46 H          19.0820   -7.4350    1.0164 H       1  UNL1        0.1624
     47 H          16.0627  -10.4583   -3.0585 H       1  UNL1        0.1410
     48 H          13.6165  -10.7054   -3.6140 H       1  UNL1        0.1435
     49 H          11.9034  -10.1608   -1.8353 H       1  UNL1        0.1595
     50 H          14.8584   -9.1748    0.9175 H       1  UNL1        0.1627
@<TRIPOS>BOND
     1    34    10    1
     2    48    26    1
     3    33     9    1
     4    47    25    1
     5    10     9   ar
     6    10    11   ar
     7     9     8   ar
     8    26    25   ar
     9    26    27   ar
    10    25    24   ar
    11    35    11    1
    12    11    12   ar
    13    49    27    1
    14    42    17    1
    15    27    28   ar
    16    44    20    1
    17     8    32    1
    18     8     7   ar
    19    38    15    1
    20    24    21    1
    21    24    29   ar
    22    20    19   ar
    23    20    21   ar
    24    43    19    1
    25    12     7   ar
    26    12     4   ar
    27    17    15    1
    28    17    41    1
    29    17    16    1
    30    39    16    1
    31    19    18   ar
    32    21    22   ar
    33     7     6   ar
    34    28    29   ar
    35    15    16    1
    36    15    14    1
    37    29    50    1
    38    16    40    1
    39     1     2    2
    40    22    45    1
    41    22    23   ar
    42    18    23   ar
    43    18    13    1
    44    31     3    1
    45     2    13   am
    46     2     3    1
    47    23    46    1
    48    13    14    1
    49     4     3    1
    50     4     5   ar
    51     3    30    1
    52    14    37    1
    53    14    36    1
    54     6     5   ar
