@<TRIPOS>MOLECULE
C:\Users\Asus\Downloads\Iniciação científica\Pre-qsarmodeling\Arquivos saída MOPAC\Molecula22.out
 55 58 0 0 0
SMALL
MULLIKEN_CHARGES

@<TRIPOS>ATOM
      1 C          17.2348  -14.7239    0.5663 C.3     1  UNL1       -0.2119
      2 C          16.3778  -13.6348   -0.0454 C.3     1  UNL1       -0.1082
      3 C          15.5150  -14.2104   -1.1499 C.3     1  UNL1       -0.2094
      4 C          17.2327  -12.4960   -0.5859 C.3     1  UNL1       -0.1824
      5 C          17.6493  -11.5583    0.5512 C.3     1  UNL1       -0.0266
      6 N          18.6130  -10.5363    0.2081 N.am    1  UNL1       -0.2911
      7 C          19.9778  -10.8214    0.1104 C.2     1  UNL1        0.2802
      8 O          20.7938   -9.9660   -0.2700 O.2     1  UNL1       -0.3227
      9 C          20.4340  -12.2360    0.5163 C.3     1  UNL1       -0.0174
     10 N          21.8543  -12.4621    0.4537 N.ar    1  UNL1       -0.1940
     11 N          22.7340  -11.9663    1.3900 N.ar    1  UNL1        0.0557
     12 N          23.9203  -11.9791    0.9850 N.ar    1  UNL1       -0.0543
     13 C          23.9550  -12.4421   -0.3715 C.ar    1  UNL1       -0.1246
     14 C          24.9889  -12.6513   -1.2825 C.ar    1  UNL1       -0.0423
     15 C          24.6458  -13.1312   -2.5427 C.ar    1  UNL1       -0.1550
     16 C          23.3135  -13.4020   -2.8930 C.ar    1  UNL1       -0.0935
     17 C          22.2603  -13.2130   -2.0029 C.ar    1  UNL1       -0.1277
     18 C          22.5820  -12.7273   -0.7355 C.ar    1  UNL1       -0.0134
     19 C          18.1220   -9.2303   -0.0594 C.ar    1  UNL1        0.0702
     20 C          16.8897   -9.0453   -0.7239 C.ar    1  UNL1       -0.1619
     21 C          16.3959   -7.7669   -0.9543 C.ar    1  UNL1       -0.1044
     22 C          17.1060   -6.6335   -0.5375 C.ar    1  UNL1       -0.0498
     23 C          18.3314   -6.8132    0.1178 C.ar    1  UNL1       -0.1006
     24 C          18.8367   -8.0855    0.3571 C.ar    1  UNL1       -0.1258
     25 C          16.5817   -5.2975   -0.7853 C.ar    1  UNL1       -0.0817
     26 C          15.9343   -4.9765   -1.9879 C.ar    1  UNL1       -0.0860
     27 C          15.4444   -3.6842   -2.1736 C.ar    1  UNL1       -0.1805
     28 C          15.6180   -2.7438   -1.1425 C.ar    1  UNL1       -0.0722
     29 N          16.2400   -3.0257    0.0193 N.ar    1  UNL1       -0.1368
     30 C          16.7088   -4.2750    0.1851 C.ar    1  UNL1       -0.0616
     31 H          17.9088  -15.1728   -0.2031 H       1  UNL1        0.0750
     32 H          17.8657  -14.3162    1.3927 H       1  UNL1        0.0690
     33 H          16.5883  -15.5335    0.9835 H       1  UNL1        0.0823
     34 H          15.6978  -13.2246    0.7552 H       1  UNL1        0.0897
     35 H          16.1503  -14.5885   -1.9864 H       1  UNL1        0.0760
     36 H          14.9036  -15.0586   -0.7579 H       1  UNL1        0.0795
     37 H          14.8237  -13.4318   -1.5530 H       1  UNL1        0.0755
     38 H          18.1287  -12.9161   -1.1113 H       1  UNL1        0.0835
     39 H          16.6489  -11.9211   -1.3521 H       1  UNL1        0.0934
     40 H          16.7209  -11.0494    0.9445 H       1  UNL1        0.1076
     41 H          18.0646  -12.1772    1.3987 H       1  UNL1        0.0869
     42 H          20.1041  -12.4244    1.5803 H       1  UNL1        0.1372
     43 H          19.9449  -12.9885   -0.1658 H       1  UNL1        0.1249
     44 H          26.0332  -12.4408   -1.0105 H       1  UNL1        0.1546
     45 H          25.4376  -13.3023   -3.2879 H       1  UNL1        0.1394
     46 H          23.0950  -13.7707   -3.9074 H       1  UNL1        0.1369
     47 H          21.2243  -13.4307   -2.2918 H       1  UNL1        0.1392
     48 H          16.3032   -9.9096   -1.0702 H       1  UNL1        0.1344
     49 H          15.4310   -7.6462   -1.4706 H       1  UNL1        0.1349
     50 H          18.9111   -5.9344    0.4417 H       1  UNL1        0.1418
     51 H          19.8146   -8.1914    0.8554 H       1  UNL1        0.1620
     52 H          15.8245   -5.7354   -2.7767 H       1  UNL1        0.1406
     53 H          14.9362   -3.4014   -3.1045 H       1  UNL1        0.1436
     54 H          15.2421   -1.7104   -1.2473 H       1  UNL1        0.1595
     55 H          17.2110   -4.4768    1.1488 H       1  UNL1        0.1625
@<TRIPOS>BOND
     1    46    16    1
     2    45    15    1
     3    53    27    1
     4    16    15   ar
     5    16    17   ar
     6    52    26    1
     7    15    14   ar
     8    47    17    1
     9    27    26   ar
    10    27    28   ar
    11    17    18   ar
    12    26    25   ar
    13    35     3    1
    14    37     3    1
    15    49    21    1
    16    39     4    1
    17    14    44    1
    18    14    13   ar
    19    54    28    1
    20     3    36    1
    21     3     2    1
    22    28    29   ar
    23    38     4    1
    24    48    20    1
    25    21    20   ar
    26    21    22   ar
    27    25    22    1
    28    25    30   ar
    29    18    13   ar
    30    18    10   ar
    31    20    19   ar
    32     4     2    1
    33     4     5    1
    34    22    23   ar
    35    13    12   ar
    36     8     7    2
    37    31     1    1
    38    43     9    1
    39    19     6    1
    40    19    24   ar
    41     2     1    1
    42     2    34    1
    43    29    30   ar
    44     7     6   am
    45     7     9    1
    46    23    24   ar
    47    23    50    1
    48    30    55    1
    49     6     5    1
    50    24    51    1
    51    10     9    1
    52    10    11   ar
    53     9    42    1
    54     5    40    1
    55     5    41    1
    56     1    33    1
    57     1    32    1
    58    12    11   ar
