@<TRIPOS>MOLECULE
C:\Users\Asus\Downloads\Iniciação científica\Pre-qsarmodeling\Arquivos saída MOPAC\Molecula26.out
 54 58 0 0 0
SMALL
MULLIKEN_CHARGES

@<TRIPOS>ATOM
      1 O          21.3209   -6.8465   -0.7276 O.2     1  UNL1       -0.3197
      2 C          21.8960   -7.8619   -0.3039 C.2     1  UNL1        0.2830
      3 C          23.3589   -7.8058    0.1762 C.3     1  UNL1       -0.0156
      4 N          23.9087   -6.4813    0.2977 N.ar    1  UNL1       -0.1947
      5 N          23.4743   -5.5668    1.2317 N.ar    1  UNL1        0.0588
      6 N          23.8146   -4.3950    0.9455 N.ar    1  UNL1       -0.0525
      7 C          24.4874   -4.3890   -0.3214 C.ar    1  UNL1       -0.1237
      8 C          25.0689   -3.3835   -1.0919 C.ar    1  UNL1       -0.0422
      9 C          25.6623   -3.7587   -2.2936 C.ar    1  UNL1       -0.1547
     10 C          25.6892   -5.0959   -2.7205 C.ar    1  UNL1       -0.0931
     11 C          25.1245   -6.1234   -1.9706 C.ar    1  UNL1       -0.1289
     12 C          24.5169   -5.7664   -0.7674 C.ar    1  UNL1       -0.0169
     13 N          21.2398   -9.0955   -0.2571 N.am    1  UNL1       -0.2982
     14 C          21.9026  -10.3061    0.1760 C.3     1  UNL1       -0.0132
     15 C          21.6285  -11.5374   -0.6969 C.3     1  UNL1       -0.1500
     16 C          22.2752  -12.7786   -0.0769 C.3     1  UNL1       -0.1859
     17 C          23.2342  -13.3173   -1.1339 C.3     1  UNL1       -0.0252
     18 O          23.3084  -12.3724   -2.2046 O.3     1  UNL1       -0.2812
     19 C          22.2465  -11.4207   -2.0933 C.3     1  UNL1       -0.0195
     20 C          19.8360   -9.1623   -0.4794 C.ar    1  UNL1        0.0621
     21 C          19.0051   -9.9041    0.3892 C.ar    1  UNL1       -0.1566
     22 C          17.6368   -9.9817    0.1607 C.ar    1  UNL1       -0.1074
     23 C          17.0496   -9.3210   -0.9267 C.ar    1  UNL1       -0.0438
     24 C          17.8696   -8.5743   -1.7827 C.ar    1  UNL1       -0.1043
     25 C          19.2417   -8.4947   -1.5716 C.ar    1  UNL1       -0.1189
     26 C          15.6140   -9.4047   -1.1565 C.ar    1  UNL1       -0.0849
     27 C          14.9038  -10.5955   -0.9424 C.ar    1  UNL1       -0.0863
     28 C          13.5292  -10.6191   -1.1756 C.ar    1  UNL1       -0.1808
     29 C          12.9016   -9.4414   -1.6195 C.ar    1  UNL1       -0.0709
     30 N          13.5616   -8.2858   -1.8324 N.ar    1  UNL1       -0.1359
     31 C          14.8862   -8.2760   -1.6035 C.ar    1  UNL1       -0.0593
     32 H          23.4277   -8.2950    1.1915 H       1  UNL1        0.1328
     33 H          23.9989   -8.3660   -0.5646 H       1  UNL1        0.1260
     34 H          25.0564   -2.3361   -0.7581 H       1  UNL1        0.1550
     35 H          26.1241   -2.9883   -2.9300 H       1  UNL1        0.1398
     36 H          26.1713   -5.3390   -3.6804 H       1  UNL1        0.1380
     37 H          25.1559   -7.1654   -2.3141 H       1  UNL1        0.1410
     38 H          23.0180  -10.1505    0.1870 H       1  UNL1        0.0942
     39 H          21.5796  -10.5444    1.2323 H       1  UNL1        0.0835
     40 H          20.5190  -11.6855   -0.7872 H       1  UNL1        0.1186
     41 H          22.8264  -12.5295    0.8638 H       1  UNL1        0.0920
     42 H          21.4997  -13.5414    0.1785 H       1  UNL1        0.0984
     43 H          24.2788  -13.4349   -0.7487 H       1  UNL1        0.0945
     44 H          22.8791  -14.2905   -1.5607 H       1  UNL1        0.0834
     45 H          21.4950  -11.6526   -2.8916 H       1  UNL1        0.0887
     46 H          22.7064  -10.4194   -2.2898 H       1  UNL1        0.0940
     47 H          19.4272  -10.4247    1.2622 H       1  UNL1        0.1345
     48 H          17.0058  -10.5575    0.8554 H       1  UNL1        0.1365
     49 H          17.4270   -8.0453   -2.6416 H       1  UNL1        0.1418
     50 H          19.8581   -7.8830   -2.2505 H       1  UNL1        0.1601
     51 H          15.4286  -11.4999   -0.6010 H       1  UNL1        0.1388
     52 H          12.9449  -11.5350   -1.0186 H       1  UNL1        0.1437
     53 H          11.8150   -9.4155   -1.8152 H       1  UNL1        0.1601
     54 H          15.3998   -7.3125   -1.7774 H       1  UNL1        0.1653
@<TRIPOS>BOND
     1    36    10    1
     2    35     9    1
     3    45    19    1
     4    10     9   ar
     5    10    11   ar
     6    49    24    1
     7    37    11    1
     8     9     8   ar
     9    46    19    1
    10    50    25    1
    11    18    19    1
    12    18    17    1
    13    19    15    1
    14    11    12   ar
    15    30    29   ar
    16    30    31   ar
    17    53    29    1
    18    24    25   ar
    19    24    23   ar
    20    54    31    1
    21    29    28   ar
    22    31    26   ar
    23    25    20   ar
    24    44    17    1
    25    28    52    1
    26    28    27   ar
    27    26    27   ar
    28    26    23    1
    29    17    43    1
    30    17    16    1
    31     8    34    1
    32     8     7   ar
    33    27    51    1
    34    23    22   ar
    35    40    15    1
    36    12     7   ar
    37    12     4   ar
    38     1     2    2
    39    15    16    1
    40    15    14    1
    41    33     3    1
    42    20    13    1
    43    20    21   ar
    44     7     6   ar
    45     2    13   am
    46     2     3    1
    47    13    14    1
    48    16    42    1
    49    16    41    1
    50    22    21   ar
    51    22    48    1
    52    14    38    1
    53    14    39    1
    54     3     4    1
    55     3    32    1
    56     4     5   ar
    57    21    47    1
    58     6     5   ar
