@<TRIPOS>MOLECULE
C:\Users\Asus\Downloads\Iniciação científica\Pre-qsarmodeling\Arquivos saída MOPAC\Molecula28.out
 53 57 0 0 0
SMALL
MULLIKEN_CHARGES

@<TRIPOS>ATOM
      1 CL         23.9470  -14.7926   -1.7497 Cl      1  UNL1       -0.0052
      2 C          23.4284  -13.2227   -1.3582 C.ar    1  UNL1       -0.0559
      3 C          23.6938  -12.7011   -0.0868 C.ar    1  UNL1       -0.1201
      4 C          23.2630  -11.4135    0.2218 C.ar    1  UNL1       -0.1177
      5 C          22.5736  -10.6499   -0.7215 C.ar    1  UNL1       -0.1310
      6 C          22.3066  -11.1721   -1.9892 C.ar    1  UNL1       -0.1058
      7 C          22.7388  -12.4668   -2.3081 C.ar    1  UNL1       -0.1248
      8 C          21.5813  -10.4131   -3.0693 C.3     1  UNL1        0.0095
      9 N          20.8965   -9.1979   -2.6973 N.am    1  UNL1       -0.2862
     10 C          21.6040   -8.0064   -2.4899 C.2     1  UNL1        0.2754
     11 O          21.0455   -6.9866   -2.0569 O.2     1  UNL1       -0.3141
     12 C          23.0968   -8.0087   -2.8715 C.3     1  UNL1       -0.0210
     13 N          23.8257   -6.8306   -2.4853 N.ar    1  UNL1       -0.1938
     14 N          23.7008   -5.6133   -3.1147 N.ar    1  UNL1        0.0637
     15 N          24.1543   -4.6710   -2.4227 N.ar    1  UNL1       -0.0549
     16 C          24.5897   -5.1772   -1.1534 C.ar    1  UNL1       -0.1224
     17 C          25.1674   -4.5838   -0.0321 C.ar    1  UNL1       -0.0415
     18 C          25.4793   -5.4118    1.0423 C.ar    1  UNL1       -0.1546
     19 C          25.2319   -6.7935    1.0099 C.ar    1  UNL1       -0.0940
     20 C          24.6622   -7.4167   -0.0963 C.ar    1  UNL1       -0.1328
     21 C          24.3393   -6.6032   -1.1822 C.ar    1  UNL1       -0.0195
     22 C          19.5243   -9.3015   -2.3396 C.ar    1  UNL1        0.0599
     23 C          19.0272  -10.4732   -1.7275 C.ar    1  UNL1       -0.1617
     24 C          17.6798  -10.5840   -1.4076 C.ar    1  UNL1       -0.1045
     25 C          16.7862   -9.5374   -1.6731 C.ar    1  UNL1       -0.0458
     26 C          17.2786   -8.3737   -2.2793 C.ar    1  UNL1       -0.1027
     27 C          18.6225   -8.2509   -2.6137 C.ar    1  UNL1       -0.1211
     28 C          15.3794   -9.6547   -1.3148 C.ar    1  UNL1       -0.0821
     29 C          14.9738  -10.3294   -0.1528 C.ar    1  UNL1       -0.0858
     30 C          13.6152  -10.4101    0.1497 C.ar    1  UNL1       -0.1803
     31 C          12.6934   -9.8089   -0.7259 C.ar    1  UNL1       -0.0714
     32 N          13.0567   -9.1569   -1.8478 N.ar    1  UNL1       -0.1367
     33 C          14.3698   -9.0862   -2.1278 C.ar    1  UNL1       -0.0613
     34 H          24.2335  -13.3023    0.6606 H       1  UNL1        0.1525
     35 H          23.4646  -10.9944    1.2196 H       1  UNL1        0.1426
     36 H          22.2354   -9.6384   -0.4455 H       1  UNL1        0.1459
     37 H          22.5315  -12.8853   -3.3054 H       1  UNL1        0.1498
     38 H          22.3313  -10.1673   -3.8798 H       1  UNL1        0.0999
     39 H          20.8185  -11.1100   -3.5312 H       1  UNL1        0.1202
     40 H          23.6052   -8.8865   -2.3752 H       1  UNL1        0.1290
     41 H          23.1639   -8.1151   -3.9938 H       1  UNL1        0.1404
     42 H          25.3659   -3.5029   -0.0026 H       1  UNL1        0.1556
     43 H          25.9324   -4.9739    1.9449 H       1  UNL1        0.1399
     44 H          25.4960   -7.4021    1.8889 H       1  UNL1        0.1363
     45 H          24.4725   -8.4988   -0.1108 H       1  UNL1        0.1404
     46 H          19.7036  -11.3099   -1.4903 H       1  UNL1        0.1403
     47 H          17.3136  -11.5107   -0.9391 H       1  UNL1        0.1362
     48 H          16.5966   -7.5342   -2.4877 H       1  UNL1        0.1421
     49 H          18.9814   -7.3145   -3.0720 H       1  UNL1        0.1626
     50 H          15.7215  -10.7816    0.5155 H       1  UNL1        0.1404
     51 H          13.2676  -10.9288    1.0524 H       1  UNL1        0.1439
     52 H          11.6084   -9.8488   -0.5230 H       1  UNL1        0.1599
     53 H          14.6337   -8.5499   -3.0576 H       1  UNL1        0.1623
@<TRIPOS>BOND
     1    41    12    1
     2    38     8    1
     3    39     8    1
     4    37     7    1
     5    14    13   ar
     6    14    15   ar
     7    49    27    1
     8     8     9    1
     9     8     6    1
    10    53    33    1
    11    12    10    1
    12    12    13    1
    13    12    40    1
    14     9    10   am
    15     9    22    1
    16    27    22   ar
    17    27    26   ar
    18    10    11    2
    19    48    26    1
    20    13    21   ar
    21    15    16   ar
    22    22    23   ar
    23     7     6   ar
    24     7     2   ar
    25    26    25   ar
    26    33    32   ar
    27    33    28   ar
    28     6     5   ar
    29    32    31   ar
    30     1     2    1
    31    23    46    1
    32    23    24   ar
    33    25    24   ar
    34    25    28    1
    35    24    47    1
    36     2     3   ar
    37    28    29   ar
    38    21    16   ar
    39    21    20   ar
    40    16    17   ar
    41    31    52    1
    42    31    30   ar
    43     5    36    1
    44     5     4   ar
    45    29    30   ar
    46    29    50    1
    47    45    20    1
    48    20    19   ar
    49     3     4   ar
    50     3    34    1
    51    17    42    1
    52    17    18   ar
    53    30    51    1
    54     4    35    1
    55    19    18   ar
    56    19    44    1
    57    18    43    1
