@<TRIPOS>MOLECULE
C:\Users\Asus\Downloads\Iniciação científica\Pre-qsarmodeling\Arquivos saída MOPAC\Molecula21.out
 48 52 0 0 0
SMALL
MULLIKEN_CHARGES

@<TRIPOS>ATOM
      1 O          20.7324   -7.6844   -1.5067 O.2     1  UNL1       -0.3197
      2 C          21.2560   -8.7220   -1.0715 C.2     1  UNL1        0.2821
      3 C          22.7211   -8.7515   -0.5969 C.3     1  UNL1       -0.0201
      4 N          23.4620   -7.5374   -0.8190 N.ar    1  UNL1       -0.1915
      5 N          23.2839   -6.3928   -0.0778 N.ar    1  UNL1        0.0604
      6 N          23.7756   -5.3820   -0.6349 N.ar    1  UNL1       -0.0585
      7 C          24.3017   -5.7529   -1.9155 C.ar    1  UNL1       -0.1240
      8 C          24.9477   -5.0435   -2.9270 C.ar    1  UNL1       -0.0435
      9 C          25.3421   -5.7530   -4.0570 C.ar    1  UNL1       -0.1560
     10 C          25.1100   -7.1321   -4.1836 C.ar    1  UNL1       -0.0959
     11 C          24.4735   -7.8693   -3.1900 C.ar    1  UNL1       -0.1282
     12 C          24.0641   -7.1754   -2.0512 C.ar    1  UNL1       -0.0157
     13 N          20.5359   -9.9152   -0.9544 N.am    1  UNL1       -0.2886
     14 C          21.1829  -11.1361   -0.5294 C.3     1  UNL1        0.0360
     15 C          22.0880  -11.7979   -1.5117 C.ar    1  UNL1       -0.1534
     16 C          23.1536  -12.6575   -1.0774 C.ar    1  UNL1       -0.1533
     17 C          23.8291  -13.2020   -2.1459 C.ar    1  UNL1       -0.4399
     18 S          23.1945  -12.6872   -3.6026 S.2     1  UNL1        0.5817
     19 C          22.0214  -11.7413   -2.8894 C.ar    1  UNL1       -0.4357
     20 C          19.1850  -10.0023   -1.3884 C.ar    1  UNL1        0.0569
     21 C          18.7303  -11.1365   -2.0959 C.ar    1  UNL1       -0.1678
     22 C          17.3976  -11.2443   -2.4718 C.ar    1  UNL1       -0.1157
     23 C          16.4771  -10.2323   -2.1643 C.ar    1  UNL1       -0.0034
     24 C          16.9303   -9.0950   -1.4811 C.ar    1  UNL1       -0.0880
     25 C          18.2612   -8.9767   -1.0953 C.ar    1  UNL1       -0.1257
     26 C          15.0871  -10.3751   -2.5478 C.ar    1  UNL1       -0.0806
     27 C          14.4435  -11.5763   -2.9313 C.ar    1  UNL1       -0.1538
     28 N          13.1203  -11.2439   -3.2045 N.ar    1  UNL1       -0.2079
     29 C          12.9940   -9.8662   -2.9827 C.ar    1  UNL1       -0.0981
     30 N          14.1593   -9.3189   -2.5864 N.ar    1  UNL1       -0.1281
     31 H          22.7217   -8.9628    0.5125 H       1  UNL1        0.1360
     32 H          23.2649   -9.5792   -1.1384 H       1  UNL1        0.1325
     33 H          25.1342   -3.9645   -2.8312 H       1  UNL1        0.1537
     34 H          25.8484   -5.2208   -4.8765 H       1  UNL1        0.1380
     35 H          25.4388   -7.6456   -5.1005 H       1  UNL1        0.1354
     36 H          24.2988   -8.9471   -3.3011 H       1  UNL1        0.1410
     37 H          21.7742  -10.9153    0.4093 H       1  UNL1        0.0923
     38 H          20.3789  -11.8808   -0.2451 H       1  UNL1        0.1192
     39 H          23.3787  -12.8445   -0.0256 H       1  UNL1        0.1563
     40 H          24.6738  -13.8861   -2.0776 H       1  UNL1        0.1757
     41 H          21.3003  -11.1588   -3.4646 H       1  UNL1        0.1860
     42 H          19.4286  -11.9472   -2.3594 H       1  UNL1        0.1363
     43 H          17.0673  -12.1357   -3.0262 H       1  UNL1        0.1273
     44 H          16.2285   -8.2800   -1.2409 H       1  UNL1        0.1577
     45 H          18.5936   -8.0629   -0.5760 H       1  UNL1        0.1597
     46 H          14.8224  -12.5926   -3.0135 H       1  UNL1        0.1777
     47 H          12.0517   -9.3267   -3.1228 H       1  UNL1        0.1993
     48 H          12.4137  -11.8623   -3.4995 H       1  UNL1        0.2520
@<TRIPOS>BOND
     1    35    10    1
     2    34     9    1
     3    10     9   ar
     4    10    11   ar
     5     9     8   ar
     6    18    19   ar
     7    18    17   ar
     8    48    28    1
     9    41    19    1
    10    36    11    1
    11    28    29   ar
    12    28    27   ar
    13    11    12   ar
    14    47    29    1
    15    43    22    1
    16    46    27    1
    17    29    30   ar
    18    27    26   ar
    19     8    33    1
    20     8     7   ar
    21    19    15   ar
    22    30    26   ar
    23    26    23    1
    24    22    23   ar
    25    22    21   ar
    26    42    21    1
    27    23    24   ar
    28    17    40    1
    29    17    16   ar
    30    21    20   ar
    31    12     7   ar
    32    12     4   ar
    33     7     6   ar
    34    15    16   ar
    35    15    14    1
    36     1     2    2
    37    24    44    1
    38    24    25   ar
    39    20    25   ar
    40    20    13    1
    41    32     3    1
    42    25    45    1
    43    16    39    1
    44     2    13   am
    45     2     3    1
    46    13    14    1
    47     4     3    1
    48     4     5   ar
    49     6     5   ar
    50     3    31    1
    51    14    38    1
    52    14    37    1
