@<TRIPOS>MOLECULE
C:\Users\Asus\Downloads\Iniciação científica\Pre-qsarmodeling\Arquivos saída MOPAC\Molecula27.out
 49 53 0 0 0
SMALL
MULLIKEN_CHARGES

@<TRIPOS>ATOM
      1 O          21.2028   -7.1581    0.2336 O.2     1  UNL1       -0.3188
      2 C          21.8362   -8.1782    0.5479 C.2     1  UNL1        0.2869
      3 C          23.3289   -8.1180    0.9174 C.3     1  UNL1       -0.0209
      4 N          23.9526   -6.8360    0.7128 N.ar    1  UNL1       -0.1902
      5 N          23.7842   -5.7648    1.5602 N.ar    1  UNL1        0.0573
      6 N          24.0985   -4.6762    1.0229 N.ar    1  UNL1       -0.0574
      7 C          24.4555   -4.9064   -0.3470 C.ar    1  UNL1       -0.1242
      8 C          24.8703   -4.0707   -1.3825 C.ar    1  UNL1       -0.0460
      9 C          25.1362   -4.6605   -2.6147 C.ar    1  UNL1       -0.1555
     10 C          25.0068   -6.0439   -2.8172 C.ar    1  UNL1       -0.0992
     11 C          24.6054   -6.9065   -1.8017 C.ar    1  UNL1       -0.1247
     12 C          24.3248   -6.3323   -0.5618 C.ar    1  UNL1       -0.0174
     13 N          21.1924   -9.4193    0.6532 N.am    1  UNL1       -0.2867
     14 C          21.9242  -10.6557    0.7920 C.3     1  UNL1        0.0529
     15 C          22.3433  -11.3101   -0.4951 C.ar    1  UNL1       -0.1274
     16 C          22.0119  -12.6182   -0.8377 C.ar    1  UNL1       -0.4435
     17 S          22.6577  -13.0154   -2.3255 S.2     1  UNL1        0.5305
     18 C          23.3448  -11.4595   -2.4692 C.ar    1  UNL1       -0.3476
     19 N          23.1152  -10.6447   -1.4455 N.ar    1  UNL1       -0.1100
     20 C          19.8230   -9.5385    0.2727 C.ar    1  UNL1        0.0584
     21 C          18.9299  -10.2660    1.0884 C.ar    1  UNL1       -0.1413
     22 C          17.5972  -10.4048    0.7198 C.ar    1  UNL1       -0.1123
     23 C          17.1094   -9.8192   -0.4565 C.ar    1  UNL1       -0.0414
     24 C          17.9907   -9.0798   -1.2565 C.ar    1  UNL1       -0.1073
     25 C          19.3284   -8.9397   -0.9041 C.ar    1  UNL1       -0.1167
     26 C          15.7115   -9.9727   -0.8355 C.ar    1  UNL1       -0.0832
     27 C          15.0176  -11.1717   -0.6129 C.ar    1  UNL1       -0.0872
     28 C          13.6809  -11.2669   -0.9981 C.ar    1  UNL1       -0.1814
     29 C          13.0714  -10.1496   -1.5961 C.ar    1  UNL1       -0.0716
     30 N          13.7152   -8.9870   -1.8195 N.ar    1  UNL1       -0.1363
     31 C          15.0041   -8.9088   -1.4452 C.ar    1  UNL1       -0.0596
     32 H          23.4266   -8.3891    2.0090 H       1  UNL1        0.1355
     33 H          23.9020   -8.8570    0.2876 H       1  UNL1        0.1414
     34 H          24.9784   -2.9879   -1.2275 H       1  UNL1        0.1530
     35 H          25.4525   -4.0266   -3.4570 H       1  UNL1        0.1371
     36 H          25.2266   -6.4582   -3.8134 H       1  UNL1        0.1341
     37 H          24.5037   -7.9875   -1.9700 H       1  UNL1        0.1520
     38 H          22.8436  -10.4781    1.4216 H       1  UNL1        0.1057
     39 H          21.2687  -11.3904    1.3464 H       1  UNL1        0.1070
     40 H          21.4092  -13.2929   -0.2331 H       1  UNL1        0.1856
     41 H          23.9335  -11.1387   -3.3336 H       1  UNL1        0.1953
     42 H          19.2743  -10.7213    2.0296 H       1  UNL1        0.1353
     43 H          16.9133  -10.9704    1.3712 H       1  UNL1        0.1353
     44 H          17.6258   -8.6069   -2.1818 H       1  UNL1        0.1403
     45 H          19.9960   -8.3331   -1.5377 H       1  UNL1        0.1575
     46 H          15.5258  -12.0278   -0.1451 H       1  UNL1        0.1384
     47 H          13.1127  -12.1929   -0.8424 H       1  UNL1        0.1431
     48 H          12.0139  -10.1811   -1.9128 H       1  UNL1        0.1596
     49 H          15.5022   -7.9400   -1.6338 H       1  UNL1        0.1654
@<TRIPOS>BOND
     1    36    10    1
     2    35     9    1
     3    41    18    1
     4    10     9   ar
     5    10    11   ar
     6     9     8   ar
     7    18    17   ar
     8    18    19   ar
     9    17    16   ar
    10    44    24    1
    11    37    11    1
    12    48    29    1
    13    30    29   ar
    14    30    31   ar
    15    11    12   ar
    16    49    31    1
    17    29    28   ar
    18    45    25    1
    19    19    15   ar
    20    31    26   ar
    21     8    34    1
    22     8     7   ar
    23    24    25   ar
    24    24    23   ar
    25    28    47    1
    26    28    27   ar
    27    25    20   ar
    28    16    15   ar
    29    16    40    1
    30    26    27   ar
    31    26    23    1
    32    27    46    1
    33    12     7   ar
    34    12     4   ar
    35    15    14    1
    36    23    22   ar
    37     7     6   ar
    38     1     2    2
    39    20    13    1
    40    20    21   ar
    41    33     3    1
    42     2    13   am
    43     2     3    1
    44    13    14    1
    45     4     3    1
    46     4     5   ar
    47    22    21   ar
    48    22    43    1
    49    14    39    1
    50    14    38    1
    51     3    32    1
    52     6     5   ar
    53    21    42    1
