@<TRIPOS>MOLECULE
C:\Users\Asus\Downloads\Iniciação científica\Pre-qsarmodeling\Arquivos saída MOPAC\Molecula24.out
 53 57 0 0 0
SMALL
MULLIKEN_CHARGES

@<TRIPOS>ATOM
      1 O          21.4822   -7.1347   -1.4185 O.2     1  UNL1       -0.3318
      2 C          22.0187   -8.0194   -0.7285 C.2     1  UNL1        0.2844
      3 C          23.5378   -7.9792   -0.4728 C.3     1  UNL1       -0.0112
      4 N          24.0492   -6.6624   -0.1927 N.ar    1  UNL1       -0.1973
      5 N          23.8176   -5.9898    0.9823 N.ar    1  UNL1        0.0480
      6 N          24.1117   -4.7720    0.8992 N.ar    1  UNL1       -0.0587
      7 C          24.5341   -4.4746   -0.4365 C.ar    1  UNL1       -0.1282
      8 C          24.9673   -3.3086   -1.0680 C.ar    1  UNL1       -0.0432
      9 C          25.3114   -3.3975   -2.4124 C.ar    1  UNL1       -0.1558
     10 C          25.2358   -4.6099   -3.1187 C.ar    1  UNL1       -0.0934
     11 C          24.8167   -5.7913   -2.5169 C.ar    1  UNL1       -0.1228
     12 C          24.4614   -5.7223   -1.1689 C.ar    1  UNL1       -0.0075
     13 N          21.2702   -9.0636   -0.1999 N.am    1  UNL1       -0.3025
     14 C          21.8325  -10.1688    0.5412 C.3     1  UNL1       -0.0077
     15 C          22.6796  -11.1379   -0.2685 C.3     1  UNL1       -0.1525
     16 C          23.0463  -12.4204    0.5199 C.3     1  UNL1       -0.1669
     17 C          22.2978  -13.2769   -0.5219 C.3     1  UNL1       -0.1720
     18 C          21.9172  -12.0019   -1.3016 C.3     1  UNL1       -0.1678
     19 C          19.8600   -9.0988   -0.4226 C.ar    1  UNL1        0.0574
     20 C          19.3292   -9.5165   -1.6587 C.ar    1  UNL1       -0.1175
     21 C          17.9523   -9.5499   -1.8549 C.ar    1  UNL1       -0.1148
     22 C          17.0722   -9.1694   -0.8334 C.ar    1  UNL1       -0.0305
     23 C          17.6010   -8.7552    0.3973 C.ar    1  UNL1       -0.1149
     24 C          18.9749   -8.7180    0.6068 C.ar    1  UNL1       -0.1210
     25 C          15.6307   -9.1936   -1.0446 C.ar    1  UNL1       -0.0877
     26 C          15.0075  -10.2211   -1.7678 C.ar    1  UNL1       -0.0842
     27 C          13.6224  -10.1961   -1.9292 C.ar    1  UNL1       -0.1812
     28 C          12.8967   -9.1352   -1.3589 C.ar    1  UNL1       -0.0701
     29 N          13.4726   -8.1336   -0.6651 N.ar    1  UNL1       -0.1364
     30 C          14.8083   -8.1690   -0.5175 C.ar    1  UNL1       -0.0585
     31 H          23.8363   -8.6478    0.3835 H       1  UNL1        0.1286
     32 H          24.0322   -8.3452   -1.4186 H       1  UNL1        0.1252
     33 H          25.0300   -2.3584   -0.5189 H       1  UNL1        0.1534
     34 H          25.6497   -2.4943   -2.9426 H       1  UNL1        0.1386
     35 H          25.5130   -4.6226   -4.1845 H       1  UNL1        0.1369
     36 H          24.7561   -6.7314   -3.0800 H       1  UNL1        0.1417
     37 H          22.4598   -9.7662    1.3896 H       1  UNL1        0.0888
     38 H          20.9774  -10.7439    1.0040 H       1  UNL1        0.1074
     39 H          23.5677  -10.6271   -0.7076 H       1  UNL1        0.0930
     40 H          24.1378  -12.6158    0.5718 H       1  UNL1        0.0934
     41 H          22.6108  -12.4648    1.5407 H       1  UNL1        0.0923
     42 H          22.9513  -13.9752   -1.0857 H       1  UNL1        0.0919
     43 H          21.4286  -13.8324   -0.1113 H       1  UNL1        0.0924
     44 H          20.8258  -11.7970   -1.3418 H       1  UNL1        0.0982
     45 H          22.3425  -11.9527   -2.3261 H       1  UNL1        0.0906
     46 H          20.0009   -9.8037   -2.4826 H       1  UNL1        0.1421
     47 H          17.5518   -9.8663   -2.8302 H       1  UNL1        0.1376
     48 H          16.9208   -8.4547    1.2095 H       1  UNL1        0.1403
     49 H          19.3649   -8.3798    1.5796 H       1  UNL1        0.1448
     50 H          15.6052  -11.0393   -2.1956 H       1  UNL1        0.1399
     51 H          13.1038  -10.9861   -2.4876 H       1  UNL1        0.1440
     52 H          11.7981   -9.0790   -1.4601 H       1  UNL1        0.1602
     53 H          15.2541   -7.3285    0.0457 H       1  UNL1        0.1649
@<TRIPOS>BOND
     1    35    10    1
     2    10    11   ar
     3    10     9   ar
     4    36    11    1
     5    34     9    1
     6    47    21    1
     7    11    12   ar
     8    51    27    1
     9    46    20    1
    10     9     8   ar
    11    45    18    1
    12    50    26    1
    13    27    26   ar
    14    27    28   ar
    15    21    20   ar
    16    21    22   ar
    17    26    25   ar
    18    20    19   ar
    19    52    28    1
    20    32     3    1
    21     1     2    2
    22    28    29   ar
    23    44    18    1
    24    18    17    1
    25    18    15    1
    26    12     7   ar
    27    12     4   ar
    28    42    17    1
    29     8    33    1
    30     8     7   ar
    31    25    22    1
    32    25    30   ar
    33    22    23   ar
    34     2     3    1
    35     2    13   am
    36    39    15    1
    37    29    30   ar
    38    17    43    1
    39    17    16    1
    40    30    53    1
    41     3     4    1
    42     3    31    1
    43     7     6   ar
    44    19    13    1
    45    19    24   ar
    46    15    16    1
    47    15    14    1
    48    13    14    1
    49     4     5   ar
    50    23    24   ar
    51    23    48    1
    52    16    40    1
    53    16    41    1
    54    14    38    1
    55    14    37    1
    56    24    49    1
    57     6     5   ar
