@<TRIPOS>MOLECULE
C:\Users\Asus\Downloads\Iniciação científica\Pre-qsarmodeling\Arquivos saída MOPAC\Molecula25.out
 56 60 0 0 0
SMALL
MULLIKEN_CHARGES

@<TRIPOS>ATOM
      1 O          21.0979   -6.8396   -0.2476 O.2     1  UNL1       -0.3197
      2 C          21.6909   -7.8416    0.1826 C.2     1  UNL1        0.2809
      3 C          23.1302   -7.7578    0.7241 C.3     1  UNL1       -0.0162
      4 N          23.7487   -6.4624    0.6216 N.ar    1  UNL1       -0.1944
      5 N          23.3667   -5.3734    1.3708 N.ar    1  UNL1        0.0658
      6 N          23.7944   -4.2946    0.8952 N.ar    1  UNL1       -0.0562
      7 C          24.4885   -4.5559   -0.3321 C.ar    1  UNL1       -0.1228
      8 C          25.1575   -3.7434   -1.2459 C.ar    1  UNL1       -0.0421
      9 C          25.7472   -4.3633   -2.3434 C.ar    1  UNL1       -0.1557
     10 C          25.6851   -5.7535   -2.5313 C.ar    1  UNL1       -0.0942
     11 C          25.0306   -6.5923   -1.6344 C.ar    1  UNL1       -0.1312
     12 C          24.4273   -5.9893   -0.5308 C.ar    1  UNL1       -0.0194
     13 N          21.0617   -9.0875    0.2567 N.am    1  UNL1       -0.2984
     14 C          21.8079  -10.3072    0.4683 C.3     1  UNL1       -0.0180
     15 C          22.5465  -10.8641   -0.7595 C.3     1  UNL1       -0.1292
     16 C          23.4459  -12.0310   -0.3389 C.3     1  UNL1       -0.1561
     17 C          23.0416  -13.2485   -1.1594 C.3     1  UNL1       -0.1582
     18 C          21.7195  -12.9153   -1.8337 C.3     1  UNL1       -0.1586
     19 C          21.5908  -11.3993   -1.8259 C.3     1  UNL1       -0.1583
     20 C          19.6852   -9.2127   -0.0848 C.ar    1  UNL1        0.0600
     21 C          18.8088   -9.9075    0.7771 C.ar    1  UNL1       -0.1419
     22 C          17.4638  -10.0379    0.4542 C.ar    1  UNL1       -0.1112
     23 C          16.9458   -9.4838   -0.7254 C.ar    1  UNL1       -0.0398
     24 C          17.8126   -8.7820   -1.5739 C.ar    1  UNL1       -0.1070
     25 C          19.1614   -8.6439   -1.2639 C.ar    1  UNL1       -0.1213
     26 C          15.5336   -9.6319   -1.0511 C.ar    1  UNL1       -0.0832
     27 C          14.8208  -10.7922   -0.7111 C.ar    1  UNL1       -0.0869
     28 C          13.4671  -10.8808   -1.0330 C.ar    1  UNL1       -0.1811
     29 C          12.8607   -9.7997   -1.6970 C.ar    1  UNL1       -0.0709
     30 N          13.5231   -8.6770   -2.0382 N.ar    1  UNL1       -0.1364
     31 C          14.8269   -8.6024   -1.7181 C.ar    1  UNL1       -0.0595
     32 H          23.1047   -8.0458    1.8162 H       1  UNL1        0.1383
     33 H          23.7832   -8.4811    0.1571 H       1  UNL1        0.1213
     34 H          25.2153   -2.6551   -1.0998 H       1  UNL1        0.1551
     35 H          26.2784   -3.7497   -3.0869 H       1  UNL1        0.1394
     36 H          26.1698   -6.1922   -3.4175 H       1  UNL1        0.1367
     37 H          24.9904   -7.6781   -1.7911 H       1  UNL1        0.1381
     38 H          22.5624  -10.1290    1.2884 H       1  UNL1        0.0833
     39 H          21.0944  -11.1014    0.8335 H       1  UNL1        0.1073
     40 H          23.1791  -10.0508   -1.2075 H       1  UNL1        0.0847
     41 H          24.5198  -11.7750   -0.5191 H       1  UNL1        0.0827
     42 H          23.3373  -12.2487    0.7541 H       1  UNL1        0.0810
     43 H          23.8235  -13.4730   -1.9286 H       1  UNL1        0.0827
     44 H          22.9432  -14.1539   -0.5107 H       1  UNL1        0.0844
     45 H          21.6845  -13.3162   -2.8764 H       1  UNL1        0.0867
     46 H          20.8704  -13.3774   -1.2687 H       1  UNL1        0.0810
     47 H          20.5348  -11.0887   -1.6252 H       1  UNL1        0.0971
     48 H          21.8738  -10.9850   -2.8269 H       1  UNL1        0.0846
     49 H          19.1794  -10.3433    1.7178 H       1  UNL1        0.1372
     50 H          16.7935  -10.5711    1.1462 H       1  UNL1        0.1361
     51 H          17.4280   -8.3360   -2.5045 H       1  UNL1        0.1405
     52 H          19.8157   -8.0598   -1.9314 H       1  UNL1        0.1560
     53 H          15.3265  -11.6260   -0.2020 H       1  UNL1        0.1390
     54 H          12.8828  -11.7737   -0.7757 H       1  UNL1        0.1436
     55 H          11.7913   -9.8295   -1.9716 H       1  UNL1        0.1599
     56 H          15.3371   -7.6640   -2.0033 H       1  UNL1        0.1646
@<TRIPOS>BOND
     1    36    10    1
     2    35     9    1
     3    45    18    1
     4    48    19    1
     5    10     9   ar
     6    10    11   ar
     7    51    24    1
     8     9     8   ar
     9    30    31   ar
    10    30    29   ar
    11    56    31    1
    12    55    29    1
    13    52    25    1
    14    43    17    1
    15    18    19    1
    16    18    46    1
    17    18    17    1
    18    19    47    1
    19    19    15    1
    20    37    11    1
    21    31    26   ar
    22    29    28   ar
    23    11    12   ar
    24    24    25   ar
    25    24    23   ar
    26    25    20   ar
    27     8    34    1
    28     8     7   ar
    29    40    15    1
    30    17    44    1
    31    17    16    1
    32    26    23    1
    33    26    27   ar
    34    28    54    1
    35    28    27   ar
    36    15    16    1
    37    15    14    1
    38    23    22   ar
    39    27    53    1
    40    12     7   ar
    41    12     4   ar
    42    41    16    1
    43    16    42    1
    44     7     6   ar
    45     1     2    2
    46    20    13    1
    47    20    21   ar
    48    33     3    1
    49     2    13   am
    50     2     3    1
    51    13    14    1
    52    22    21   ar
    53    22    50    1
    54    14    39    1
    55    14    38    1
    56     4     3    1
    57     4     5   ar
    58     3    32    1
    59    21    49    1
    60     6     5   ar
