@<TRIPOS>MOLECULE
C:\Users\Asus\Downloads\Iniciação científica\Pre-qsarmodeling\Arquivos saída MOPAC\Molecula20.out
 51 55 0 0 0
SMALL
MULLIKEN_CHARGES

@<TRIPOS>ATOM
      1 C          12.8148  -11.6791   -2.0917 C.3     1  UNL1       -0.0740
      2 N          13.8578  -10.7468   -1.8293 N.ar    1  UNL1       -0.1639
      3 C          13.7669   -9.3448   -1.8508 C.ar    1  UNL1       -0.0946
      4 N          14.9451   -8.7665   -1.5532 N.ar    1  UNL1       -0.1287
      5 C          15.8487   -9.8213   -1.3299 C.ar    1  UNL1       -0.0807
      6 C          15.1782  -11.0554   -1.5012 C.ar    1  UNL1       -0.1511
      7 C          17.2415   -9.6433   -0.9713 C.ar    1  UNL1       -0.0034
      8 C          17.7192   -8.4169   -0.4877 C.ar    1  UNL1       -0.0875
      9 C          19.0501   -8.2644   -0.1149 C.ar    1  UNL1       -0.1283
     10 C          19.9541   -9.3429   -0.2264 C.ar    1  UNL1        0.0582
     11 C          19.4769  -10.5675   -0.7432 C.ar    1  UNL1       -0.1705
     12 C          18.1419  -10.7101   -1.1003 C.ar    1  UNL1       -0.1148
     13 N          21.3025   -9.2126    0.2040 N.am    1  UNL1       -0.2867
     14 C          21.9493  -10.3802    0.7604 C.3     1  UNL1        0.0346
     15 C          22.8824  -11.1175   -0.1391 C.ar    1  UNL1       -0.1509
     16 C          22.7487  -11.2242   -1.5626 C.ar    1  UNL1       -0.1438
     17 C          23.7375  -12.0161   -2.1031 C.ar    1  UNL1       -0.4452
     18 S          24.7700  -12.6018   -0.9289 S.2     1  UNL1        0.5877
     19 C          23.9716  -11.8380    0.3168 C.ar    1  UNL1       -0.4499
     20 C          22.0336   -8.0458   -0.0475 C.2     1  UNL1        0.2843
     21 O          21.5391   -7.0805   -0.6501 O.2     1  UNL1       -0.3184
     22 C          23.4756   -8.0100    0.4929 C.3     1  UNL1       -0.0184
     23 N          24.1850   -6.7792    0.2632 N.ar    1  UNL1       -0.1931
     24 N          23.8842   -5.5999    0.9017 N.ar    1  UNL1        0.0606
     25 N          24.4136   -4.6081    0.3445 N.ar    1  UNL1       -0.0595
     26 C          25.1095   -5.0386   -0.8317 C.ar    1  UNL1       -0.1249
     27 C          25.8674   -4.3714   -1.7933 C.ar    1  UNL1       -0.0436
     28 C          26.4250   -5.1348   -2.8136 C.ar    1  UNL1       -0.1566
     29 C          26.2415   -6.5258   -2.8826 C.ar    1  UNL1       -0.0957
     30 C          25.4971   -7.2221   -1.9359 C.ar    1  UNL1       -0.1284
     31 C          24.9276   -6.4742   -0.9047 C.ar    1  UNL1       -0.0144
     32 H          12.9991  -12.2065   -3.0673 H       1  UNL1        0.0888
     33 H          12.7688  -12.4450   -1.2711 H       1  UNL1        0.0922
     34 H          11.8318  -11.1406   -2.1474 H       1  UNL1        0.0984
     35 H          12.8368   -8.8172   -2.0850 H       1  UNL1        0.1983
     36 H          15.5299  -12.0803   -1.4081 H       1  UNL1        0.1771
     37 H          17.0365   -7.5565   -0.3978 H       1  UNL1        0.1575
     38 H          19.3975   -7.2840    0.2508 H       1  UNL1        0.1603
     39 H          20.1572  -11.4241   -0.8737 H       1  UNL1        0.1359
     40 H          17.7942  -11.6748   -1.4993 H       1  UNL1        0.1275
     41 H          22.5155  -10.0658    1.6878 H       1  UNL1        0.0910
     42 H          21.1476  -11.1031    1.1006 H       1  UNL1        0.1194
     43 H          21.9543  -10.7299   -2.1288 H       1  UNL1        0.1704
     44 H          23.8508  -12.2467   -3.1615 H       1  UNL1        0.1763
     45 H          24.2853  -11.9165    1.3569 H       1  UNL1        0.1735
     46 H          23.4413   -8.1805    1.6091 H       1  UNL1        0.1333
     47 H          24.0631   -8.8398    0.0029 H       1  UNL1        0.1327
     48 H          26.0146   -3.2832   -1.7411 H       1  UNL1        0.1536
     49 H          27.0264   -4.6383   -3.5902 H       1  UNL1        0.1379
     50 H          26.7003   -7.0819   -3.7150 H       1  UNL1        0.1355
     51 H          25.3605   -8.3092   -2.0024 H       1  UNL1        0.1420
@<TRIPOS>BOND
     1    50    29    1
     2    49    28    1
     3    44    17    1
     4    32     1    1
     5    29    28   ar
     6    29    30   ar
     7    28    27   ar
     8    34     1    1
     9    43    16    1
    10    17    16   ar
    11    17    18   ar
    12     1     2    1
    13     1    33    1
    14    35     3    1
    15    51    30    1
    16    30    31   ar
    17     3     2   ar
    18     3     4   ar
    19     2     6   ar
    20    27    48    1
    21    27    26   ar
    22    16    15   ar
    23     4     5   ar
    24     6    36    1
    25     6     5   ar
    26    40    12    1
    27     5     7    1
    28    12     7   ar
    29    12    11   ar
    30     7     8   ar
    31    18    19   ar
    32    31    26   ar
    33    31    23   ar
    34    39    11    1
    35    26    25   ar
    36    11    10   ar
    37    21    20    2
    38     8    37    1
    39     8     9   ar
    40    10     9   ar
    41    10    13    1
    42    15    19   ar
    43    15    14    1
    44     9    38    1
    45    20    13   am
    46    20    22    1
    47    47    22    1
    48    13    14    1
    49    23    22    1
    50    23    24   ar
    51    19    45    1
    52    25    24   ar
    53    22    46    1
    54    14    42    1
    55    14    41    1
