@<TRIPOS>MOLECULE
C:\Users\Asus\Downloads\Iniciação científica\Pre-qsarmodeling\Arquivos saída MOPAC\Molecula29.out
 53 57 0 0 0
SMALL
MULLIKEN_CHARGES

@<TRIPOS>ATOM
      1 F          24.2084  -13.9145   -3.0991 F       1  UNL1       -0.0852
      2 C          23.5557  -13.1091   -2.2314 C.ar    1  UNL1        0.1048
      3 C          23.3497  -11.7585   -2.5698 C.ar    1  UNL1       -0.1553
      4 C          22.6861  -10.9090   -1.6919 C.ar    1  UNL1       -0.1038
      5 C          22.2167  -11.3810   -0.4632 C.ar    1  UNL1       -0.1182
      6 C          22.4102  -12.7252   -0.1252 C.ar    1  UNL1       -0.1020
      7 C          23.0743  -13.5934   -0.9943 C.ar    1  UNL1       -0.0971
      8 CL         23.2813  -15.2136   -0.5402 Cl      1  UNL1        0.0211
      9 C          21.5311  -10.5054    0.5526 C.3     1  UNL1        0.0133
     10 N          20.8963   -9.2995    0.0761 N.am    1  UNL1       -0.2872
     11 C          21.6317   -8.1304   -0.1530 C.2     1  UNL1        0.2742
     12 O          21.1125   -7.1301   -0.6722 O.2     1  UNL1       -0.3143
     13 C          23.1026   -8.1239    0.3083 C.3     1  UNL1       -0.0223
     14 N          23.8465   -6.9443   -0.0465 N.ar    1  UNL1       -0.1929
     15 N          23.6699   -5.7275    0.5769 N.ar    1  UNL1        0.0606
     16 N          24.1085   -4.7730   -0.1059 N.ar    1  UNL1       -0.0508
     17 C          24.5817   -5.2660   -1.3679 C.ar    1  UNL1       -0.1220
     18 C          25.1546   -4.6534   -2.4804 C.ar    1  UNL1       -0.0408
     19 C          25.5098   -5.4697   -3.5509 C.ar    1  UNL1       -0.1535
     20 C          25.3124   -6.8589   -3.5195 C.ar    1  UNL1       -0.0925
     21 C          24.7471   -7.5006   -2.4207 C.ar    1  UNL1       -0.1321
     22 C          24.3759   -6.6992   -1.3421 C.ar    1  UNL1       -0.0199
     23 C          19.5303   -9.3941   -0.3085 C.ar    1  UNL1        0.0605
     24 C          19.0217  -10.5948   -0.8511 C.ar    1  UNL1       -0.1616
     25 C          17.6743  -10.7093   -1.1685 C.ar    1  UNL1       -0.1042
     26 C          16.7924   -9.6378   -0.9728 C.ar    1  UNL1       -0.0454
     27 C          17.2997   -8.4384   -0.4558 C.ar    1  UNL1       -0.1023
     28 C          18.6439   -8.3115   -0.1235 C.ar    1  UNL1       -0.1223
     29 C          15.3797   -9.7753   -1.2990 C.ar    1  UNL1       -0.0834
     30 C          14.9533  -10.5221   -2.4080 C.ar    1  UNL1       -0.0855
     31 C          13.5882  -10.6391   -2.6663 C.ar    1  UNL1       -0.1801
     32 C          12.6821   -9.9983   -1.8024 C.ar    1  UNL1       -0.0710
     33 N          13.0662   -9.2703   -0.7354 N.ar    1  UNL1       -0.1365
     34 C          14.3853   -9.1658   -0.4971 C.ar    1  UNL1       -0.0610
     35 H          23.7190  -11.3872   -3.5378 H       1  UNL1        0.1580
     36 H          22.5288   -9.8591   -1.9892 H       1  UNL1        0.1483
     37 H          22.0341  -13.1077    0.8382 H       1  UNL1        0.1545
     38 H          20.7396  -11.1255    1.0727 H       1  UNL1        0.1188
     39 H          22.2957  -10.2296    1.3388 H       1  UNL1        0.1012
     40 H          23.1124   -8.2179    1.4339 H       1  UNL1        0.1411
     41 H          23.6401   -9.0036   -0.1514 H       1  UNL1        0.1262
     42 H          25.3158   -3.5662   -2.5083 H       1  UNL1        0.1560
     43 H          25.9561   -5.0148   -4.4485 H       1  UNL1        0.1408
     44 H          25.6122   -7.4594   -4.3927 H       1  UNL1        0.1376
     45 H          24.5990   -8.5885   -2.4076 H       1  UNL1        0.1373
     46 H          19.6878  -11.4534   -1.0324 H       1  UNL1        0.1395
     47 H          17.2963  -11.6599   -1.5753 H       1  UNL1        0.1367
     48 H          16.6284   -7.5765   -0.3143 H       1  UNL1        0.1426
     49 H          19.0133   -7.3487    0.2662 H       1  UNL1        0.1630
     50 H          15.6899  -11.0026   -3.0690 H       1  UNL1        0.1408
     51 H          13.2239  -11.2171   -3.5254 H       1  UNL1        0.1442
     52 H          11.5925  -10.0685   -1.9690 H       1  UNL1        0.1601
     53 H          14.6677   -8.5666    0.3879 H       1  UNL1        0.1623
@<TRIPOS>BOND
     1    43    19    1
     2    44    20    1
     3    19    20   ar
     4    19    18   ar
     5    35     3    1
     6    51    31    1
     7    20    21   ar
     8     1     2    1
     9    50    30    1
    10    31    30   ar
    11    31    32   ar
    12     3     2   ar
    13     3     4   ar
    14    42    18    1
    15    18    17   ar
    16    21    45    1
    17    21    22   ar
    18    30    29   ar
    19     2     7   ar
    20    36     4    1
    21    52    32    1
    22    32    33   ar
    23     4     5   ar
    24    47    25    1
    25    17    22   ar
    26    17    16   ar
    27    22    14   ar
    28    29    26    1
    29    29    34   ar
    30    25    26   ar
    31    25    24   ar
    32    46    24    1
    33     7     8    1
    34     7     6   ar
    35    26    27   ar
    36    24    23   ar
    37    33    34   ar
    38    12    11    2
    39    34    53    1
    40     5     6   ar
    41     5     9    1
    42    27    48    1
    43    27    28   ar
    44    23    28   ar
    45    23    10    1
    46    11    10   am
    47    11    13    1
    48    41    13    1
    49     6    37    1
    50    28    49    1
    51    16    15   ar
    52    14    13    1
    53    14    15   ar
    54    10     9    1
    55    13    40    1
    56     9    38    1
    57     9    39    1
