@<TRIPOS>MOLECULE
C:\Users\Asus\Downloads\Iniciação científica\Pre-qsarmodeling\Arquivos saída MOPAC\Molecula35.out
 54 58 0 0 0
SMALL
MULLIKEN_CHARGES

@<TRIPOS>ATOM
      1 CL         24.0483  -15.3451   -2.6491 Cl      1  UNL1       -0.0069
      2 C          23.4778  -13.7905   -2.2684 C.ar    1  UNL1       -0.0560
      3 C          23.7298  -13.2495   -1.0023 C.ar    1  UNL1       -0.1212
      4 C          23.2519  -11.9768   -0.7012 C.ar    1  UNL1       -0.1189
      5 C          22.5330  -11.2459   -1.6482 C.ar    1  UNL1       -0.1320
      6 C          22.2870  -11.7842   -2.9134 C.ar    1  UNL1       -0.1042
      7 C          22.7611  -13.0665   -3.2228 C.ar    1  UNL1       -0.1249
      8 C          21.5417  -11.0548   -4.0002 C.3     1  UNL1        0.0103
      9 N          20.8624   -9.8313   -3.6489 N.am    1  UNL1       -0.2868
     10 C          21.5671   -8.6346   -3.4734 C.2     1  UNL1        0.2758
     11 O          21.0037   -7.5997   -3.0848 O.2     1  UNL1       -0.3137
     12 C          23.0651   -8.6504   -3.8334 C.3     1  UNL1       -0.0211
     13 N          23.8028   -7.4901   -3.4118 N.ar    1  UNL1       -0.1939
     14 N          23.7272   -6.2639   -4.0281 N.ar    1  UNL1        0.0664
     15 N          24.2083   -5.3461   -3.3207 N.ar    1  UNL1       -0.0581
     16 C          24.6178   -5.8831   -2.0562 C.ar    1  UNL1       -0.1227
     17 C          25.2116   -5.3254   -0.9247 C.ar    1  UNL1       -0.0421
     18 C          25.4894   -6.1772    0.1398 C.ar    1  UNL1       -0.1557
     19 C          25.1888   -7.5483    0.0901 C.ar    1  UNL1       -0.0950
     20 C          24.6002   -8.1363   -1.0249 C.ar    1  UNL1       -0.1337
     21 C          24.3164   -7.2989   -2.1042 C.ar    1  UNL1       -0.0187
     22 C          19.4905   -9.9260   -3.2843 C.ar    1  UNL1        0.0557
     23 C          19.0076  -11.0619   -2.5988 C.ar    1  UNL1       -0.1652
     24 C          17.6614  -11.1666   -2.2731 C.ar    1  UNL1       -0.1105
     25 C          16.7564  -10.1461   -2.6014 C.ar    1  UNL1       -0.0363
     26 C          17.2351   -9.0210   -3.2861 C.ar    1  UNL1       -0.0833
     27 C          18.5787   -8.9057   -3.6258 C.ar    1  UNL1       -0.1211
     28 C          15.3577  -10.2593   -2.2066 C.ar    1  UNL1       -0.1312
     29 C          14.9927  -10.8314   -1.0172 C.ar    1  UNL1       -0.0353
     30 C          13.6222  -10.9445   -0.6451 C.ar    1  UNL1       -0.2501
     31 C          12.6557  -10.4677   -1.4953 C.ar    1  UNL1        0.0107
     32 N          12.9807   -9.8843   -2.6930 N.ar    1  UNL1       -0.2815
     33 C          14.3200   -9.7388   -3.1131 C.ar    1  UNL1        0.3284
     34 O          14.5069   -9.1840   -4.2138 O.2     1  UNL1       -0.3644
     35 H          24.2968  -13.8233   -0.2539 H       1  UNL1        0.1517
     36 H          23.4402  -11.5430    0.2928 H       1  UNL1        0.1419
     37 H          22.1554  -10.2467   -1.3781 H       1  UNL1        0.1474
     38 H          22.5655  -13.4994   -4.2163 H       1  UNL1        0.1501
     39 H          22.2777  -10.8292   -4.8293 H       1  UNL1        0.0986
     40 H          20.7718  -11.7652   -4.4286 H       1  UNL1        0.1219
     41 H          23.5580   -9.5431   -3.3482 H       1  UNL1        0.1280
     42 H          23.1447   -8.7358   -4.9566 H       1  UNL1        0.1405
     43 H          25.4481   -4.2527   -0.8800 H       1  UNL1        0.1549
     44 H          25.9564   -5.7684    1.0489 H       1  UNL1        0.1390
     45 H          25.4251   -8.1761    0.9633 H       1  UNL1        0.1354
     46 H          24.3633   -9.2094   -1.0501 H       1  UNL1        0.1413
     47 H          19.6945  -11.8735   -2.3107 H       1  UNL1        0.1373
     48 H          17.3054  -12.0692   -1.7532 H       1  UNL1        0.1311
     49 H          16.5345   -8.2197   -3.5752 H       1  UNL1        0.1612
     50 H          18.9290   -7.9985   -4.1453 H       1  UNL1        0.1608
     51 H          15.7564  -11.2108   -0.3190 H       1  UNL1        0.1435
     52 H          13.3492  -11.4059    0.3114 H       1  UNL1        0.1521
     53 H          11.5782  -10.5291   -1.2565 H       1  UNL1        0.1521
     54 H          12.2628   -9.5422   -3.2937 H       1  UNL1        0.2482
@<TRIPOS>BOND
     1    42    12    1
     2    39     8    1
     3    40     8    1
     4    38     7    1
     5    34    33    2
     6    50    27    1
     7    14    13   ar
     8    14    15   ar
     9     8     9    1
    10     8     6    1
    11    12    10    1
    12    12    13    1
    13    12    41    1
    14     9    10   am
    15     9    22    1
    16    27    26   ar
    17    27    22   ar
    18    49    26    1
    19    10    11    2
    20    13    21   ar
    21    15    16   ar
    22    54    32    1
    23    26    25   ar
    24    22    23   ar
    25     7     6   ar
    26     7     2   ar
    27    33    32   ar
    28    33    28   ar
    29     6     5   ar
    30    32    31   ar
    31     1     2    1
    32    25    24   ar
    33    25    28    1
    34    23    47    1
    35    23    24   ar
    36    24    48    1
    37     2     3   ar
    38    28    29   ar
    39    21    16   ar
    40    21    20   ar
    41    16    17   ar
    42     5    37    1
    43     5     4   ar
    44    31    53    1
    45    31    30   ar
    46    46    20    1
    47    20    19   ar
    48    29    30   ar
    49    29    51    1
    50     3     4   ar
    51     3    35    1
    52    17    43    1
    53    17    18   ar
    54     4    36    1
    55    30    52    1
    56    19    18   ar
    57    19    45    1
    58    18    44    1
