@<TRIPOS>MOLECULE
C:\Users\Asus\Downloads\Iniciação científica\Pre-qsarmodeling\Arquivos saída MOPAC\Molecula33.out
 56 60 0 0 0
SMALL
MULLIKEN_CHARGES

@<TRIPOS>ATOM
      1 C          25.3086  -13.3134   -1.6588 C.3     1  UNL1       -0.1839
      2 C          24.0760  -12.5784   -1.2908 C.ar    1  UNL1       -0.0552
      3 C          23.6282  -12.5948    0.0357 C.ar    1  UNL1       -0.1235
      4 C          22.4529  -11.9225    0.3769 C.ar    1  UNL1       -0.0567
      5 C          21.7135  -11.2337   -0.5899 C.ar    1  UNL1       -0.1164
      6 C          22.1674  -11.2100   -1.9105 C.ar    1  UNL1       -0.1081
      7 C          23.3467  -11.8786   -2.2566 C.ar    1  UNL1       -0.1318
      8 C          21.3702  -10.5371   -2.9957 C.3     1  UNL1        0.0165
      9 N          20.7879   -9.2579   -2.6651 N.am    1  UNL1       -0.2993
     10 C          21.5714   -8.1082   -2.5197 C.2     1  UNL1        0.2834
     11 O          21.0720   -7.0324   -2.1552 O.2     1  UNL1       -0.3166
     12 C          23.0659   -8.2412   -2.8604 C.3     1  UNL1       -0.0179
     13 N          23.8286   -7.0257   -2.7519 N.ar    1  UNL1       -0.1937
     14 N          23.7120   -5.9851   -3.6457 N.ar    1  UNL1        0.0586
     15 N          24.1903   -4.9158   -3.1984 N.ar    1  UNL1       -0.0552
     16 C          24.6392   -5.1214   -1.8524 C.ar    1  UNL1       -0.1247
     17 C          25.2460   -4.2917   -0.9111 C.ar    1  UNL1       -0.0432
     18 C          25.5682   -4.8499    0.3221 C.ar    1  UNL1       -0.1554
     19 C          25.3040   -6.1973    0.6161 C.ar    1  UNL1       -0.0944
     20 C          24.7050   -7.0527   -0.3040 C.ar    1  UNL1       -0.1285
     21 C          24.3675   -6.5108   -1.5445 C.ar    1  UNL1       -0.0157
     22 C          19.4045   -9.2272   -2.3328 C.ar    1  UNL1        0.0586
     23 C          18.4493   -9.7650   -3.2217 C.ar    1  UNL1       -0.1426
     24 C          17.0969   -9.7289   -2.9036 C.ar    1  UNL1       -0.1081
     25 C          16.6531   -9.1527   -1.7052 C.ar    1  UNL1       -0.0388
     26 C          17.6011   -8.6153   -0.8239 C.ar    1  UNL1       -0.1045
     27 C          18.9577   -8.6509   -1.1257 C.ar    1  UNL1       -0.1237
     28 C          15.2323   -9.1028   -1.3879 C.ar    1  UNL1       -0.0856
     29 C          14.3674  -10.1568   -1.7187 C.ar    1  UNL1       -0.0855
     30 C          13.0151  -10.0547   -1.3940 C.ar    1  UNL1       -0.1810
     31 C          12.5651   -8.8947   -0.7385 C.ar    1  UNL1       -0.0705
     32 N          13.3751   -7.8686   -0.4115 N.ar    1  UNL1       -0.1361
     33 C          14.6757   -7.9770   -0.7345 C.ar    1  UNL1       -0.0590
     34 CL         21.9080  -11.9469    1.9867 Cl      1  UNL1       -0.0070
     35 H          25.6029  -13.1100   -2.7174 H       1  UNL1        0.0856
     36 H          26.1562  -13.0173   -0.9918 H       1  UNL1        0.0912
     37 H          25.1442  -14.4148   -1.5450 H       1  UNL1        0.0930
     38 H          24.2017  -13.1411    0.8002 H       1  UNL1        0.1513
     39 H          20.7789  -10.7188   -0.3130 H       1  UNL1        0.1595
     40 H          23.7009  -11.8643   -3.2992 H       1  UNL1        0.1368
     41 H          22.0255  -10.4064   -3.9070 H       1  UNL1        0.0923
     42 H          20.5369  -11.2468   -3.2816 H       1  UNL1        0.1182
     43 H          23.5248   -8.9990   -2.1606 H       1  UNL1        0.1318
     44 H          23.1576   -8.6095   -3.9241 H       1  UNL1        0.1341
     45 H          25.4593   -3.2379   -1.1408 H       1  UNL1        0.1545
     46 H          26.0428   -4.2198    1.0899 H       1  UNL1        0.1390
     47 H          25.5787   -6.5887    1.6082 H       1  UNL1        0.1372
     48 H          24.5057   -8.1044   -0.0602 H       1  UNL1        0.1425
     49 H          18.7632  -10.2051   -4.1808 H       1  UNL1        0.1369
     50 H          16.3646  -10.1428   -3.6143 H       1  UNL1        0.1373
     51 H          17.2721   -8.1605    0.1238 H       1  UNL1        0.1419
     52 H          19.6811   -8.1931   -0.4317 H       1  UNL1        0.1537
     53 H          14.7538  -11.0551   -2.2227 H       1  UNL1        0.1395
     54 H          12.3122  -10.8600   -1.6436 H       1  UNL1        0.1439
     55 H          11.5030   -8.7758   -0.4597 H       1  UNL1        0.1601
     56 H          15.3114   -7.1132   -0.4654 H       1  UNL1        0.1651
@<TRIPOS>BOND
     1    49    23    1
     2    44    12    1
     3    41     8    1
     4    14    15   ar
     5    14    13   ar
     6    50    24    1
     7    40     7    1
     8    42     8    1
     9    23    24   ar
    10    23    22   ar
    11    15    16   ar
    12     8     9    1
    13     8     6    1
    14    24    25   ar
    15    12    13    1
    16    12    10    1
    17    12    43    1
    18    13    21   ar
    19    35     1    1
    20     9    10   am
    21     9    22    1
    22    10    11    2
    23    22    27   ar
    24     7     6   ar
    25     7     2   ar
    26    53    29    1
    27     6     5   ar
    28    16    21   ar
    29    16    17   ar
    30    29    30   ar
    31    29    28   ar
    32    25    28    1
    33    25    26   ar
    34     1    37    1
    35     1     2    1
    36     1    36    1
    37    54    30    1
    38    21    20   ar
    39    30    31   ar
    40    28    33   ar
    41     2     3   ar
    42    45    17    1
    43    27    26   ar
    44    27    52    1
    45    17    18   ar
    46    26    51    1
    47    31    55    1
    48    31    32   ar
    49    33    56    1
    50    33    32   ar
    51     5    39    1
    52     5     4   ar
    53    20    48    1
    54    20    19   ar
    55     3     4   ar
    56     3    38    1
    57    18    19   ar
    58    18    46    1
    59     4    34    1
    60    19    47    1
