@<TRIPOS>MOLECULE
C:\Users\Asus\Downloads\Iniciação científica\Pre-qsarmodeling\Arquivos saída MOPAC\Molecula34.out
 52 56 0 0 0
SMALL
MULLIKEN_CHARGES

@<TRIPOS>ATOM
      1 CL         23.9892  -14.7405   -1.5666 Cl      1  UNL1        0.0167
      2 C          23.4838  -13.1523   -1.2845 C.ar    1  UNL1       -0.1138
      3 C          23.7666  -12.5247   -0.0496 C.ar    1  UNL1       -0.0581
      4 N          23.3768  -11.2711    0.2323 N.ar    1  UNL1       -0.1224
      5 C          22.6892  -10.5957   -0.7092 C.ar    1  UNL1       -0.0722
      6 C          22.3694  -11.1295   -1.9733 C.ar    1  UNL1       -0.1552
      7 C          22.7789  -12.4404   -2.2583 C.ar    1  UNL1       -0.0892
      8 C          21.6338  -10.3708   -3.0415 C.3     1  UNL1        0.0162
      9 N          20.9514   -9.1603   -2.6521 N.am    1  UNL1       -0.2897
     10 C          21.6535   -7.9590   -2.4813 C.2     1  UNL1        0.2743
     11 O          21.0931   -6.9347   -2.0637 O.2     1  UNL1       -0.3093
     12 C          23.1428   -7.9609   -2.8787 C.3     1  UNL1       -0.0196
     13 N          23.8738   -6.7769   -2.5176 N.ar    1  UNL1       -0.1956
     14 N          23.7458   -5.5723   -3.1724 N.ar    1  UNL1        0.0609
     15 N          24.1913   -4.6144   -2.4974 N.ar    1  UNL1       -0.0533
     16 C          24.6207   -5.0921   -1.2146 C.ar    1  UNL1       -0.1230
     17 C          25.1838   -4.4718   -0.1006 C.ar    1  UNL1       -0.0428
     18 C          25.4868   -5.2749    0.9952 C.ar    1  UNL1       -0.1543
     19 C          25.2487   -6.6586    0.9892 C.ar    1  UNL1       -0.0908
     20 C          24.6956   -7.3086   -0.1102 C.ar    1  UNL1       -0.1311
     21 C          24.3778   -6.5194   -1.2152 C.ar    1  UNL1       -0.0221
     22 C          19.5854   -9.2739   -2.2737 C.ar    1  UNL1        0.0593
     23 C          19.1102  -10.4500   -1.6521 C.ar    1  UNL1       -0.1623
     24 C          17.7678  -10.5793   -1.3190 C.ar    1  UNL1       -0.1034
     25 C          16.8578   -9.5465   -1.5813 C.ar    1  UNL1       -0.0448
     26 C          17.3293   -8.3754   -2.1893 C.ar    1  UNL1       -0.1021
     27 C          18.6682   -8.2342   -2.5366 C.ar    1  UNL1       -0.1210
     28 C          15.4529   -9.6880   -1.2243 C.ar    1  UNL1       -0.0841
     29 C          15.0574  -10.3411   -0.0470 C.ar    1  UNL1       -0.0849
     30 C          13.6987  -10.4504    0.2472 C.ar    1  UNL1       -0.1801
     31 C          12.7683   -9.8996   -0.6523 C.ar    1  UNL1       -0.0709
     32 N          13.1226   -9.2680   -1.7887 N.ar    1  UNL1       -0.1365
     33 C          14.4357   -9.1674   -2.0594 C.ar    1  UNL1       -0.0610
     34 H          24.3248  -13.0537    0.7448 H       1  UNL1        0.1791
     35 H          22.3742   -9.5764   -0.4146 H       1  UNL1        0.1738
     36 H          22.5453  -12.8995   -3.2315 H       1  UNL1        0.1559
     37 H          22.3754  -10.1193   -3.8583 H       1  UNL1        0.1016
     38 H          20.8690  -11.0686   -3.4993 H       1  UNL1        0.1206
     39 H          23.6592   -8.8295   -2.3748 H       1  UNL1        0.1250
     40 H          23.1972   -8.0837   -4.0001 H       1  UNL1        0.1400
     41 H          25.3775   -3.3897   -0.0922 H       1  UNL1        0.1550
     42 H          25.9229   -4.8149    1.8951 H       1  UNL1        0.1399
     43 H          25.5041   -7.2489    1.8835 H       1  UNL1        0.1406
     44 H          24.5136   -8.3922   -0.1017 H       1  UNL1        0.1459
     45 H          19.7993  -11.2772   -1.4193 H       1  UNL1        0.1372
     46 H          17.4178  -11.5091   -0.8440 H       1  UNL1        0.1370
     47 H          16.6335   -7.5454   -2.3900 H       1  UNL1        0.1429
     48 H          19.0091   -7.2927   -2.9982 H       1  UNL1        0.1637
     49 H          15.8128  -10.7520    0.6395 H       1  UNL1        0.1411
     50 H          13.3577  -10.9534    1.1614 H       1  UNL1        0.1444
     51 H          11.6830   -9.9633   -0.4565 H       1  UNL1        0.1602
     52 H          14.6943   -8.6440   -2.9980 H       1  UNL1        0.1622
@<TRIPOS>BOND
     1    40    12    1
     2    37     8    1
     3    38     8    1
     4    36     7    1
     5    14    13   ar
     6    14    15   ar
     7     8     9    1
     8     8     6    1
     9    48    27    1
    10    52    33    1
    11    12    13    1
    12    12    10    1
    13    12    39    1
    14     9    10   am
    15     9    22    1
    16    27    22   ar
    17    27    26   ar
    18    13    21   ar
    19    15    16   ar
    20    10    11    2
    21    47    26    1
    22    22    23   ar
    23     7     6   ar
    24     7     2   ar
    25    26    25   ar
    26    33    32   ar
    27    33    28   ar
    28     6     5   ar
    29    32    31   ar
    30    23    45    1
    31    23    24   ar
    32    25    24   ar
    33    25    28    1
    34     1     2    1
    35    24    46    1
    36     2     3   ar
    37    28    29   ar
    38    21    16   ar
    39    21    20   ar
    40    16    17   ar
    41     5    35    1
    42     5     4   ar
    43    31    51    1
    44    31    30   ar
    45    20    44    1
    46    20    19   ar
    47    17    41    1
    48    17    18   ar
    49     3     4   ar
    50     3    34    1
    51    29    30   ar
    52    29    49    1
    53    30    50    1
    54    19    18   ar
    55    19    43    1
    56    18    42    1
