@<TRIPOS>MOLECULE
C:\Users\Asus\Downloads\Iniciação científica\Pre-qsarmodeling\Arquivos saída MOPAC\Molecula36.out
 51 55 0 0 0
SMALL
MULLIKEN_CHARGES

@<TRIPOS>ATOM
      1 CL         23.9688  -15.1566   -3.0270 Cl      1  UNL1       -0.0068
      2 C          23.1621  -13.7584   -2.4966 C.ar    1  UNL1       -0.0564
      3 C          23.2175  -13.3944   -1.1461 C.ar    1  UNL1       -0.1216
      4 C          22.5454  -12.2504   -0.7240 C.ar    1  UNL1       -0.1190
      5 C          21.8213  -11.4753   -1.6315 C.ar    1  UNL1       -0.1294
      6 C          21.7697  -11.8376   -2.9792 C.ar    1  UNL1       -0.1069
      7 C          22.4468  -12.9861   -3.4129 C.ar    1  UNL1       -0.1269
      8 C          20.9864  -11.0832   -4.0207 C.3     1  UNL1        0.0118
      9 N          20.3808   -9.8300   -3.6417 N.am    1  UNL1       -0.2904
     10 C          21.1336   -8.6549   -3.5455 C.2     1  UNL1        0.2792
     11 O          20.6135   -7.5781   -3.2144 O.2     1  UNL1       -0.3162
     12 C          22.6279   -8.7583   -3.9045 C.3     1  UNL1       -0.0196
     13 N          23.4056   -7.5810   -3.6243 N.ar    1  UNL1       -0.1933
     14 N          23.3345   -6.4263   -4.3688 N.ar    1  UNL1        0.0627
     15 N          23.8307   -5.4422   -3.7702 N.ar    1  UNL1       -0.0566
     16 C          24.2456   -5.8422   -2.4574 C.ar    1  UNL1       -0.1233
     17 C          24.8506   -5.1681   -1.3975 C.ar    1  UNL1       -0.0426
     18 C          25.1258   -5.8993   -0.2461 C.ar    1  UNL1       -0.1551
     19 C          24.8195   -7.2660   -0.1455 C.ar    1  UNL1       -0.0948
     20 C          24.2255   -7.9695   -1.1889 C.ar    1  UNL1       -0.1299
     21 C          23.9330   -7.2522   -2.3489 C.ar    1  UNL1       -0.0180
     22 C          19.0211   -9.8649   -3.2253 C.ar    1  UNL1        0.0463
     23 C          18.5392  -10.9476   -2.4578 C.ar    1  UNL1       -0.1571
     24 C          17.2025  -11.0087   -2.0880 C.ar    1  UNL1       -0.1185
     25 C          16.3019   -9.9978   -2.4580 C.ar    1  UNL1        0.0052
     26 C          16.7862   -8.9146   -3.2069 C.ar    1  UNL1       -0.1113
     27 C          18.1206   -8.8423   -3.5896 C.ar    1  UNL1       -0.1130
     28 C          14.9199  -10.0738   -2.0757 C.ar    1  UNL1       -0.1419
     29 C          14.2168  -11.1852   -1.5660 C.ar    1  UNL1       -0.1091
     30 N          12.9090  -10.7552   -1.3481 N.ar    1  UNL1       -0.1643
     31 N          12.7313   -9.4738   -1.6759 N.ar    1  UNL1       -0.0811
     32 C          13.9257   -9.0150   -2.1249 C.ar    1  UNL1       -0.1538
     33 H          23.7819  -14.0069   -0.4268 H       1  UNL1        0.1518
     34 H          22.5807  -11.9574    0.3365 H       1  UNL1        0.1428
     35 H          21.2837  -10.5854   -1.2678 H       1  UNL1        0.1508
     36 H          22.4068  -13.2791   -4.4736 H       1  UNL1        0.1491
     37 H          21.6681  -10.8955   -4.9034 H       1  UNL1        0.0973
     38 H          20.1614  -11.7709   -4.3797 H       1  UNL1        0.1211
     39 H          23.0881   -9.6078   -3.3201 H       1  UNL1        0.1295
     40 H          22.7036   -8.9747   -5.0104 H       1  UNL1        0.1378
     41 H          25.0985   -4.0998   -1.4743 H       1  UNL1        0.1547
     42 H          25.5966   -5.3952    0.6118 H       1  UNL1        0.1391
     43 H          25.0552   -7.7967    0.7902 H       1  UNL1        0.1362
     44 H          23.9964   -9.0394   -1.1004 H       1  UNL1        0.1410
     45 H          19.2219  -11.7527   -2.1410 H       1  UNL1        0.1380
     46 H          16.8488  -11.8605   -1.4877 H       1  UNL1        0.1295
     47 H          16.0988   -8.1069   -3.5027 H       1  UNL1        0.1390
     48 H          18.4745   -7.9692   -4.1622 H       1  UNL1        0.1602
     49 H          14.5397  -12.2039   -1.3587 H       1  UNL1        0.1771
     50 H          14.0664   -7.9865   -2.4572 H       1  UNL1        0.1837
     51 H          12.1523  -11.2928   -0.9978 H       1  UNL1        0.2728
@<TRIPOS>BOND
     1    40    12    1
     2    37     8    1
     3    36     7    1
     4    38     8    1
     5    14    15   ar
     6    14    13   ar
     7    48    27    1
     8     8     9    1
     9     8     6    1
    10    12    13    1
    11    12    10    1
    12    12    39    1
    13    15    16   ar
    14     9    10   am
    15     9    22    1
    16    13    21   ar
    17    27    22   ar
    18    27    26   ar
    19    10    11    2
    20    47    26    1
    21     7     6   ar
    22     7     2   ar
    23    22    23   ar
    24    26    25   ar
    25     1     2    1
    26     6     5   ar
    27     2     3   ar
    28    25    24   ar
    29    25    28    1
    30    23    45    1
    31    23    24   ar
    32    16    21   ar
    33    16    17   ar
    34    50    32    1
    35    21    20   ar
    36    32    28   ar
    37    32    31   ar
    38    24    46    1
    39    28    29   ar
    40    31    30   ar
    41     5    35    1
    42     5     4   ar
    43    29    49    1
    44    29    30   ar
    45    41    17    1
    46    17    18   ar
    47    30    51    1
    48    20    44    1
    49    20    19   ar
    50     3     4   ar
    51     3    33    1
    52     4    34    1
    53    18    19   ar
    54    18    42    1
    55    19    43    1
