@<TRIPOS>MOLECULE
C:\Users\Asus\Downloads\Iniciação científica\Pre-qsarmodeling\Arquivos saída MOPAC\Molecula32.out
 53 57 0 0 0
SMALL
MULLIKEN_CHARGES

@<TRIPOS>ATOM
      1 CL         25.7886  -13.0067   -1.4290 Cl      1  UNL1        0.0032
      2 C          24.2254  -12.4145   -1.1324 C.ar    1  UNL1       -0.0548
      3 C          23.6498  -12.5885    0.1296 C.ar    1  UNL1       -0.1163
      4 C          22.3635  -12.0902    0.3583 C.ar    1  UNL1       -0.0534
      5 C          21.6581  -11.4312   -0.6530 C.ar    1  UNL1       -0.1094
      6 C          22.2458  -11.2669   -1.9102 C.ar    1  UNL1       -0.1021
      7 C          23.5326  -11.7564   -2.1527 C.ar    1  UNL1       -0.1286
      8 C          21.4853  -10.6111   -3.0327 C.3     1  UNL1        0.0159
      9 N          20.8737   -9.3417   -2.7172 N.am    1  UNL1       -0.2992
     10 C          21.6389   -8.1804   -2.5601 C.2     1  UNL1        0.2826
     11 O          21.1346   -7.1311   -2.1320 O.2     1  UNL1       -0.3141
     12 C          23.1157   -8.2636   -2.9853 C.3     1  UNL1       -0.0201
     13 N          23.8665   -7.0461   -2.8270 N.ar    1  UNL1       -0.1927
     14 N          23.6746   -5.9408   -3.6283 N.ar    1  UNL1        0.0590
     15 N          24.1210   -4.8910   -3.1101 N.ar    1  UNL1       -0.0520
     16 C          24.6199   -5.1824   -1.7968 C.ar    1  UNL1       -0.1237
     17 C          25.2145   -4.4032   -0.8065 C.ar    1  UNL1       -0.0428
     18 C          25.5988   -5.0433    0.3685 C.ar    1  UNL1       -0.1543
     19 C          25.4087   -6.4212    0.5559 C.ar    1  UNL1       -0.0940
     20 C          24.8225   -7.2270   -0.4163 C.ar    1  UNL1       -0.1280
     21 C          24.4204   -6.6028   -1.5962 C.ar    1  UNL1       -0.0187
     22 C          19.4921   -9.3465   -2.3750 C.ar    1  UNL1        0.0541
     23 C          18.5492   -9.8986   -3.2686 C.ar    1  UNL1       -0.1419
     24 C          17.1997   -9.9185   -2.9395 C.ar    1  UNL1       -0.1096
     25 C          16.7448   -9.3841   -1.7256 C.ar    1  UNL1       -0.0369
     26 C          17.6775   -8.8158   -0.8483 C.ar    1  UNL1       -0.1052
     27 C          19.0328   -8.7974   -1.1604 C.ar    1  UNL1       -0.1238
     28 C          15.3271   -9.4187   -1.3937 C.ar    1  UNL1       -0.0871
     29 C          14.5230  -10.5140   -1.7444 C.ar    1  UNL1       -0.0856
     30 C          13.1685  -10.4979   -1.4149 C.ar    1  UNL1       -0.1808
     31 C          12.6547   -9.3790   -0.7354 C.ar    1  UNL1       -0.0695
     32 N          13.4062   -8.3168   -0.3852 N.ar    1  UNL1       -0.1359
     33 C          14.7104   -8.3434   -0.7111 C.ar    1  UNL1       -0.0581
     34 CL         21.6490  -12.2922    1.8847 Cl      1  UNL1        0.0056
     35 H          24.2000  -13.1100    0.9287 H       1  UNL1        0.1661
     36 H          20.6441  -11.0411   -0.4626 H       1  UNL1        0.1642
     37 H          23.9969  -11.6323   -3.1436 H       1  UNL1        0.1512
     38 H          22.1758  -10.4693   -3.9155 H       1  UNL1        0.0950
     39 H          20.6745  -11.3311   -3.3545 H       1  UNL1        0.1200
     40 H          23.6256   -9.0612   -2.3702 H       1  UNL1        0.1283
     41 H          23.1523   -8.5505   -4.0772 H       1  UNL1        0.1361
     42 H          25.3708   -3.3252   -0.9534 H       1  UNL1        0.1549
     43 H          26.0648   -4.4549    1.1736 H       1  UNL1        0.1396
     44 H          25.7329   -6.8796    1.5031 H       1  UNL1        0.1375
     45 H          24.6835   -8.3040   -0.2573 H       1  UNL1        0.1417
     46 H          18.8699  -10.3071   -4.2393 H       1  UNL1        0.1375
     47 H          16.4768  -10.3448   -3.6521 H       1  UNL1        0.1381
     48 H          17.3391   -8.3803    0.1050 H       1  UNL1        0.1425
     49 H          19.7431   -8.3196   -0.4661 H       1  UNL1        0.1557
     50 H          14.9599  -11.3776   -2.2673 H       1  UNL1        0.1395
     51 H          12.5132  -11.3382   -1.6777 H       1  UNL1        0.1444
     52 H          11.5876   -9.3258   -0.4553 H       1  UNL1        0.1606
     53 H          15.2967   -7.4528   -0.4190 H       1  UNL1        0.1650
@<TRIPOS>BOND
     1    46    23    1
     2    41    12    1
     3    38     8    1
     4    47    24    1
     5    14    15   ar
     6    14    13   ar
     7    39     8    1
     8    23    24   ar
     9    23    22   ar
    10    37     7    1
    11    15    16   ar
    12     8     9    1
    13     8     6    1
    14    12    13    1
    15    12    10    1
    16    12    40    1
    17    24    25   ar
    18    13    21   ar
    19     9    10   am
    20     9    22    1
    21    10    11    2
    22    22    27   ar
    23    50    29    1
    24     7     6   ar
    25     7     2   ar
    26     6     5   ar
    27    16    21   ar
    28    16    17   ar
    29    29    30   ar
    30    29    28   ar
    31    25    28    1
    32    25    26   ar
    33    51    30    1
    34    21    20   ar
    35     1     2    1
    36    30    31   ar
    37    28    33   ar
    38    27    26   ar
    39    27    49    1
    40     2     3   ar
    41    42    17    1
    42    26    48    1
    43    17    18   ar
    44    31    52    1
    45    31    32   ar
    46    33    53    1
    47    33    32   ar
    48     5    36    1
    49     5     4   ar
    50    20    45    1
    51    20    19   ar
    52     3     4   ar
    53     3    35    1
    54     4    34    1
    55    18    19   ar
    56    18    43    1
    57    19    44    1
