@<TRIPOS>MOLECULE
C:\Users\Asus\Downloads\Iniciação científica\Pre-qsarmodeling\Arquivos saída MOPAC\Molecula38.out
 55 59 0 0 0
SMALL
MULLIKEN_CHARGES

@<TRIPOS>ATOM
      1 C          18.1633   -6.4838   -0.6496 C.3     1  UNL1       -0.0772
      2 O          18.4312   -7.8127   -0.1958 O.3     1  UNL1       -0.2260
      3 C          18.0111   -8.8083   -1.0631 C.ar    1  UNL1        0.0781
      4 C          16.6552   -8.9389   -1.3810 C.ar    1  UNL1       -0.1526
      5 C          16.2021  -10.0204   -2.1458 C.ar    1  UNL1        0.0318
      6 C          17.1347  -10.9725   -2.5881 C.ar    1  UNL1       -0.1369
      7 C          18.4835  -10.8422   -2.2901 C.ar    1  UNL1       -0.1271
      8 C          18.9611   -9.7517   -1.5331 C.ar    1  UNL1        0.0346
      9 N          20.3439   -9.6437   -1.2281 N.am    1  UNL1       -0.2921
     10 C          20.9522  -10.7580   -0.5435 C.3     1  UNL1        0.0177
     11 C          21.8992  -11.6194   -1.3370 C.ar    1  UNL1       -0.1054
     12 C          22.7887  -12.4293   -0.6167 C.ar    1  UNL1       -0.1313
     13 C          23.6637  -13.2812   -1.2850 C.ar    1  UNL1       -0.1162
     14 C          23.6653  -13.3394   -2.6786 C.ar    1  UNL1       -0.1230
     15 C          22.7744  -12.5359   -3.3949 C.ar    1  UNL1       -0.0629
     16 C          21.8907  -11.6763   -2.7322 C.ar    1  UNL1       -0.1224
     17 CL         22.7574  -12.6030   -5.0930 Cl      1  UNL1       -0.0070
     18 C          21.0646   -8.4954   -1.5666 C.2     1  UNL1        0.2967
     19 O          20.5596   -7.5983   -2.2588 O.2     1  UNL1       -0.3217
     20 C          22.4986   -8.4013   -1.0153 C.3     1  UNL1       -0.0143
     21 N          23.2890   -7.3228   -1.5423 N.ar    1  UNL1       -0.1958
     22 N          23.1320   -6.0029   -1.2072 N.ar    1  UNL1        0.0662
     23 N          23.8060   -5.2435   -1.9473 N.ar    1  UNL1       -0.0658
     24 C          24.4787   -6.0222   -2.9428 C.ar    1  UNL1       -0.1250
     25 C          25.3523   -5.7041   -3.9833 C.ar    1  UNL1       -0.0441
     26 C          25.8361   -6.7523   -4.7581 C.ar    1  UNL1       -0.1570
     27 C          25.4703   -8.0870   -4.5129 C.ar    1  UNL1       -0.0943
     28 C          24.6067   -8.4388   -3.4820 C.ar    1  UNL1       -0.1300
     29 C          24.1102   -7.4003   -2.6916 C.ar    1  UNL1       -0.0164
     30 C          14.8079  -10.1568   -2.4628 C.ar    1  UNL1       -0.1473
     31 C          13.7696   -9.1476   -2.3363 C.ar    1  UNL1       -0.1521
     32 N          12.5761   -9.6532   -2.7340 N.ar    1  UNL1       -0.0801
     33 N          12.7963  -10.9175   -3.1017 N.ar    1  UNL1       -0.1635
     34 C          14.1321  -11.2889   -2.9637 C.ar    1  UNL1       -0.1036
     35 H          18.5804   -5.8424    0.1664 H       1  UNL1        0.1030
     36 H          18.6908   -6.2936   -1.6161 H       1  UNL1        0.1036
     37 H          17.0643   -6.3212   -0.7573 H       1  UNL1        0.0603
     38 H          15.9417   -8.1889   -1.0076 H       1  UNL1        0.1460
     39 H          16.7951  -11.8303   -3.1875 H       1  UNL1        0.1324
     40 H          19.1900  -11.6066   -2.6530 H       1  UNL1        0.1395
     41 H          21.5035  -10.3654    0.3630 H       1  UNL1        0.0929
     42 H          20.1266  -11.4339   -0.1665 H       1  UNL1        0.1211
     43 H          22.7900  -12.3952    0.4835 H       1  UNL1        0.1385
     44 H          24.3585  -13.9140   -0.7122 H       1  UNL1        0.1423
     45 H          24.3589  -14.0118   -3.2055 H       1  UNL1        0.1512
     46 H          21.1964  -11.0534   -3.3196 H       1  UNL1        0.1623
     47 H          22.4167   -8.2712    0.1041 H       1  UNL1        0.1381
     48 H          23.0517   -9.3580   -1.2463 H       1  UNL1        0.1272
     49 H          25.6447   -4.6624   -4.1773 H       1  UNL1        0.1534
     50 H          26.5239   -6.5350   -5.5894 H       1  UNL1        0.1382
     51 H          25.8798   -8.8789   -5.1595 H       1  UNL1        0.1373
     52 H          24.3245   -9.4843   -3.3024 H       1  UNL1        0.1435
     53 H          13.8807   -8.1208   -1.9877 H       1  UNL1        0.1832
     54 H          14.4917  -12.2855   -3.2149 H       1  UNL1        0.1785
     55 H          12.0483  -11.4824   -3.4276 H       1  UNL1        0.2736
@<TRIPOS>BOND
     1    50    26    1
     2    51    27    1
     3    17    15    1
     4    26    27   ar
     5    26    25   ar
     6    27    28   ar
     7    49    25    1
     8    25    24   ar
     9    28    52    1
    10    28    29   ar
    11    55    33    1
    12    15    16   ar
    13    15    14   ar
    14    46    16    1
    15    54    34    1
    16    45    14    1
    17    39     6    1
    18    33    34   ar
    19    33    32   ar
    20    34    30   ar
    21    24    29   ar
    22    24    23   ar
    23    32    31   ar
    24    16    11   ar
    25    29    21   ar
    26    14    13   ar
    27    40     7    1
    28     6     7   ar
    29     6     5   ar
    30    30    31   ar
    31    30     5    1
    32    31    53    1
    33     7     8   ar
    34    19    18    2
    35     5     4   ar
    36    23    22   ar
    37    36     1    1
    38    18     9   am
    39    18    20    1
    40    21    22   ar
    41    21    20    1
    42     8     9    1
    43     8     3   ar
    44     4     3   ar
    45     4    38    1
    46    11    12   ar
    47    11    10    1
    48    13    44    1
    49    13    12   ar
    50    48    20    1
    51     9    10    1
    52     3     2    1
    53    20    47    1
    54    37     1    1
    55     1     2    1
    56     1    35    1
    57    12    43    1
    58    10    42    1
    59    10    41    1
