@<TRIPOS>MOLECULE
C:\Users\Asus\Downloads\Iniciação científica\Pre-qsarmodeling\Arquivos saída MOPAC\Molecula31.out
 53 57 0 0 0
SMALL
MULLIKEN_CHARGES

@<TRIPOS>ATOM
      1 F          25.4057  -13.1627   -1.2428 F       1  UNL1       -0.0967
      2 C          24.1936  -12.6310   -0.9587 C.ar    1  UNL1        0.1038
      3 C          23.6379  -12.8097    0.3210 C.ar    1  UNL1       -0.1592
      4 C          22.3883  -12.2509    0.5923 C.ar    1  UNL1       -0.0368
      5 C          21.6908  -11.5308   -0.3825 C.ar    1  UNL1       -0.1265
      6 C          22.2521  -11.3597   -1.6506 C.ar    1  UNL1       -0.0842
      7 C          23.5038  -11.9038   -1.9453 C.ar    1  UNL1       -0.1703
      8 C          21.5000  -10.6405   -2.7405 C.3     1  UNL1        0.0177
      9 N          20.8740   -9.3965   -2.3644 N.am    1  UNL1       -0.3043
     10 C          21.6192   -8.2419   -2.0952 C.2     1  UNL1        0.2850
     11 O          21.1153   -7.2777   -1.5005 O.2     1  UNL1       -0.3123
     12 C          23.0690   -8.2198   -2.6123 C.3     1  UNL1       -0.0132
     13 N          23.7270   -6.9442   -2.5267 N.ar    1  UNL1       -0.1965
     14 N          23.4500   -5.8872   -3.3611 N.ar    1  UNL1        0.0579
     15 N          23.9230   -4.8070   -2.9331 N.ar    1  UNL1       -0.0560
     16 C          24.5434   -5.0288   -1.6606 C.ar    1  UNL1       -0.1247
     17 C          25.2183   -4.1996   -0.7653 C.ar    1  UNL1       -0.0421
     18 C          25.7112   -4.7805    0.3983 C.ar    1  UNL1       -0.1556
     19 C          25.5433   -6.1473    0.6729 C.ar    1  UNL1       -0.0925
     20 C          24.8863   -7.0034   -0.2045 C.ar    1  UNL1       -0.1289
     21 C          24.3818   -6.4397   -1.3761 C.ar    1  UNL1       -0.0134
     22 C          19.4838   -9.4316   -2.0541 C.ar    1  UNL1        0.0493
     23 C          18.5523   -9.7732   -3.0578 C.ar    1  UNL1       -0.1337
     24 C          17.1921   -9.7874   -2.7736 C.ar    1  UNL1       -0.1118
     25 C          16.7191   -9.4647   -1.4937 C.ar    1  UNL1       -0.0325
     26 C          17.6449   -9.1261   -0.4977 C.ar    1  UNL1       -0.1081
     27 C          19.0093   -9.1077   -0.7674 C.ar    1  UNL1       -0.1212
     28 C          15.2888   -9.4575   -1.2172 C.ar    1  UNL1       -0.0883
     29 C          14.4173  -10.3877   -1.8039 C.ar    1  UNL1       -0.0845
     30 C          13.0533  -10.3129   -1.5245 C.ar    1  UNL1       -0.1809
     31 C          12.5971   -9.3027   -0.6590 C.ar    1  UNL1       -0.0692
     32 N          13.4144   -8.4033   -0.0766 N.ar    1  UNL1       -0.1358
     33 C          14.7269   -8.4864   -0.3540 C.ar    1  UNL1       -0.0580
     34 CL         21.7029  -12.4542    2.1320 Cl      1  UNL1        0.0064
     35 H          24.1872  -13.3836    1.0822 H       1  UNL1        0.1678
     36 H          20.7012  -11.1018   -0.1509 H       1  UNL1        0.1647
     37 H          23.9578  -11.7817   -2.9399 H       1  UNL1        0.1529
     38 H          22.2026  -10.4469   -3.6034 H       1  UNL1        0.0945
     39 H          20.6959  -11.3428   -3.1142 H       1  UNL1        0.1206
     40 H          23.6709   -8.9590   -2.0085 H       1  UNL1        0.1270
     41 H          23.0712   -8.5328   -3.6978 H       1  UNL1        0.1346
     42 H          25.3524   -3.1289   -0.9752 H       1  UNL1        0.1547
     43 H          26.2494   -4.1536    1.1256 H       1  UNL1        0.1395
     44 H          25.9412   -6.5533    1.6153 H       1  UNL1        0.1374
     45 H          24.7675   -8.0717    0.0148 H       1  UNL1        0.1410
     46 H          18.8912  -10.0128   -4.0777 H       1  UNL1        0.1390
     47 H          16.4746  -10.0336   -3.5718 H       1  UNL1        0.1384
     48 H          17.2936   -8.8701    0.5142 H       1  UNL1        0.1422
     49 H          19.7156   -8.7994    0.0206 H       1  UNL1        0.1529
     50 H          14.8076  -11.1684   -2.4732 H       1  UNL1        0.1396
     51 H          12.3455  -11.0255   -1.9673 H       1  UNL1        0.1445
     52 H          11.5238   -9.2030   -0.4173 H       1  UNL1        0.1608
     53 H          15.3707   -7.7291    0.1303 H       1  UNL1        0.1649
@<TRIPOS>BOND
     1    46    23    1
     2    41    12    1
     3    38     8    1
     4    47    24    1
     5    14    15   ar
     6    14    13   ar
     7    39     8    1
     8    23    24   ar
     9    23    22   ar
    10    37     7    1
    11    15    16   ar
    12    24    25   ar
    13     8     9    1
    14     8     6    1
    15    12    13    1
    16    12    10    1
    17    12    40    1
    18    13    21   ar
    19    50    29    1
    20     9    10   am
    21     9    22    1
    22    10    11    2
    23    22    27   ar
    24    51    30    1
    25     7     6   ar
    26     7     2   ar
    27    29    30   ar
    28    29    28   ar
    29    16    21   ar
    30    16    17   ar
    31     6     5   ar
    32    30    31   ar
    33    25    28    1
    34    25    26   ar
    35    21    20   ar
    36     1     2    1
    37    28    33   ar
    38    42    17    1
    39     2     3   ar
    40    27    26   ar
    41    27    49    1
    42    17    18   ar
    43    31    52    1
    44    31    32   ar
    45    26    48    1
    46     5    36    1
    47     5     4   ar
    48    33    32   ar
    49    33    53    1
    50    20    45    1
    51    20    19   ar
    52     3     4   ar
    53     3    35    1
    54    18    19   ar
    55    18    43    1
    56     4    34    1
    57    19    44    1
