@<TRIPOS>MOLECULE
C:\Users\Asus\Downloads\Iniciação científica\Pre-qsarmodeling\Arquivos saída MOPAC\Molecula39.out
 50 54 0 0 0
SMALL
MULLIKEN_CHARGES

@<TRIPOS>ATOM
      1 CL         23.7774  -15.3143   -2.9140 Cl      1  UNL1       -0.0049
      2 C          23.1001  -13.8440   -2.3987 C.ar    1  UNL1       -0.0559
      3 C          23.2883  -13.4171   -1.0789 C.ar    1  UNL1       -0.1204
      4 C          22.7244  -12.2118   -0.6690 C.ar    1  UNL1       -0.1179
      5 C          21.9808  -11.4354   -1.5597 C.ar    1  UNL1       -0.1309
      6 C          21.7949  -11.8617   -2.8763 C.ar    1  UNL1       -0.1075
      7 C          22.3590  -13.0745   -3.2966 C.ar    1  UNL1       -0.1262
      8 C          21.0028  -11.0971   -3.9033 C.3     1  UNL1        0.0104
      9 N          20.3819   -9.8592   -3.4973 N.am    1  UNL1       -0.2826
     10 C          21.1245   -8.6774   -3.3810 C.2     1  UNL1        0.2775
     11 O          20.5990   -7.6212   -2.9979 O.2     1  UNL1       -0.3135
     12 C          22.6084   -8.7506   -3.7859 C.3     1  UNL1       -0.0182
     13 N          23.3759   -7.5676   -3.5065 N.ar    1  UNL1       -0.1949
     14 N          23.2788   -6.4044   -4.2353 N.ar    1  UNL1        0.0632
     15 N          23.7813   -5.4242   -3.6357 N.ar    1  UNL1       -0.0546
     16 C          24.2294   -5.8373   -2.3377 C.ar    1  UNL1       -0.1228
     17 C          24.8528   -5.1719   -1.2836 C.ar    1  UNL1       -0.0414
     18 C          25.1573   -5.9154   -0.1471 C.ar    1  UNL1       -0.1548
     19 C          24.8626   -7.2852   -0.0565 C.ar    1  UNL1       -0.0938
     20 C          24.2493   -7.9801   -1.0945 C.ar    1  UNL1       -0.1313
     21 C          23.9289   -7.2507   -2.2393 C.ar    1  UNL1       -0.0179
     22 C          19.0321   -9.9180   -3.0714 C.ar    1  UNL1       -0.0102
     23 C          18.5243  -11.0327   -2.3745 C.ar    1  UNL1       -0.1207
     24 C          17.1736  -11.0713   -2.0405 C.ar    1  UNL1       -0.1722
     25 C          16.3311   -9.9947   -2.3998 C.ar    1  UNL1        0.0674
     26 N          16.8175   -8.8963   -3.0461 N.ar    1  UNL1       -0.1282
     27 C          18.1142   -8.8638   -3.3628 C.ar    1  UNL1       -0.0447
     28 C          14.9219  -10.0445   -2.0851 C.ar    1  UNL1       -0.1510
     29 C          14.1836  -11.1087   -1.5286 C.ar    1  UNL1       -0.1006
     30 N          12.8688  -10.6604   -1.4347 N.ar    1  UNL1       -0.1650
     31 N          12.7191   -9.4099   -1.8838 N.ar    1  UNL1       -0.0885
     32 C          13.9415   -8.9913   -2.2916 C.ar    1  UNL1       -0.1206
     33 H          23.8724  -14.0286   -0.3746 H       1  UNL1        0.1527
     34 H          22.8621  -11.8690    0.3680 H       1  UNL1        0.1432
     35 H          21.5378  -10.4916   -1.2047 H       1  UNL1        0.1481
     36 H          22.2136  -13.4184   -4.3325 H       1  UNL1        0.1498
     37 H          21.6863  -10.8819   -4.7787 H       1  UNL1        0.1003
     38 H          20.1878  -11.7837   -4.2849 H       1  UNL1        0.1196
     39 H          23.0952   -9.6036   -3.2281 H       1  UNL1        0.1297
     40 H          22.6567   -8.9466   -4.8972 H       1  UNL1        0.1395
     41 H          25.0919   -4.1010   -1.3527 H       1  UNL1        0.1555
     42 H          25.6409   -5.4177    0.7072 H       1  UNL1        0.1398
     43 H          25.1243   -7.8259    0.8664 H       1  UNL1        0.1364
     44 H          24.0253   -9.0520   -1.0132 H       1  UNL1        0.1400
     45 H          19.1824  -11.8699   -2.0921 H       1  UNL1        0.1432
     46 H          16.7661  -11.9334   -1.4957 H       1  UNL1        0.1388
     47 H          18.4584   -7.9359   -3.8615 H       1  UNL1        0.1879
     48 H          14.4841  -12.1061   -1.2118 H       1  UNL1        0.1760
     49 H          14.1219   -7.9991   -2.7093 H       1  UNL1        0.1994
     50 H          12.0877  -11.1650   -1.0885 H       1  UNL1        0.2730
@<TRIPOS>BOND
     1    40    12    1
     2    37     8    1
     3    36     7    1
     4    38     8    1
     5    14    15   ar
     6    14    13   ar
     7     8     9    1
     8     8     6    1
     9    47    27    1
    10    12    13    1
    11    12    10    1
    12    12    39    1
    13    15    16   ar
    14    13    21   ar
    15     9    10   am
    16     9    22    1
    17    10    11    2
    18    27    22   ar
    19    27    26   ar
    20     7     6   ar
    21     7     2   ar
    22    22    23   ar
    23    26    25   ar
    24     1     2    1
    25     6     5   ar
    26    49    32    1
    27    25    28    1
    28    25    24   ar
    29     2     3   ar
    30    23    45    1
    31    23    24   ar
    32    16    21   ar
    33    16    17   ar
    34    32    28   ar
    35    32    31   ar
    36    21    20   ar
    37    28    29   ar
    38    24    46    1
    39    31    30   ar
    40     5    35    1
    41     5     4   ar
    42    29    30   ar
    43    29    48    1
    44    30    50    1
    45    41    17    1
    46    17    18   ar
    47    20    44    1
    48    20    19   ar
    49     3     4   ar
    50     3    33    1
    51     4    34    1
    52    18    19   ar
    53    18    42    1
    54    19    43    1
