@<TRIPOS>MOLECULE
*****
 51 55 0 0 0
SMALL
MULLIKEN_CHARGES

@<TRIPOS>ATOM
      1 C          15.7088   -6.5687   -1.9211 C.ar    1  UNL1       -0.0216
      2 C          15.2051   -7.8017   -1.3533 C.ar    1  UNL1       -0.1305
      3 C          15.1775   -5.3274   -1.5588 C.ar    1  UNL1       -0.1244
      4 C          14.1644   -7.7737   -0.4222 C.ar    1  UNL1       -0.0488
      5 C          14.1436   -5.3373   -0.6318 C.ar    1  UNL1       -0.0972
      6 C          13.6489   -6.5315   -0.0749 C.ar    1  UNL1       -0.1558
      7 N          16.7217   -6.9990   -2.8060 N.ar    1  UNL1       -0.2037
      8 N          15.9709   -8.8535   -1.9448 N.ar    1  UNL1       -0.0716
      9 N          16.8145   -8.3615   -2.7388 N.ar    1  UNL1        0.0582
     10 C          17.5867   -6.1380   -3.5657 C.3     1  UNL1       -0.0105
     11 C          18.4296   -5.1924   -2.6891 C.2     1  UNL1        0.2873
     12 N          19.4702   -5.6993   -1.9312 N.am    1  UNL1       -0.2767
     13 O          18.1305   -3.9820   -2.6521 O.2     1  UNL1       -0.3668
     14 C          20.2262   -4.8241   -1.0531 C.3     1  UNL1        0.0171
     15 C          23.8209   -4.0470   -1.9861 C.ar    1  UNL1       -0.0672
     16 C          23.6651   -2.9203   -2.7991 C.ar    1  UNL1       -0.1181
     17 C          22.7091   -4.6820   -1.4244 C.ar    1  UNL1       -0.1078
     18 C          22.3837   -2.4329   -3.0539 C.ar    1  UNL1       -0.1273
     19 C          21.4305   -4.1809   -1.6807 C.ar    1  UNL1       -0.1035
     20 C          21.2683   -3.0601   -2.5021 C.ar    1  UNL1       -0.1112
     21 CL         25.3791   -4.6558   -1.6777 Cl      1  UNL1       -0.0173
     22 C          21.1092   -8.6642   -3.5049 C.ar    1  UNL1       -0.1204
     23 C          21.0572   -9.6010   -2.4610 C.ar    1  UNL1        0.0247
     24 C          20.5860   -7.3868   -3.3458 C.ar    1  UNL1       -0.1333
     25 C          20.4627   -9.2235   -1.2470 C.ar    1  UNL1       -0.1123
     26 C          19.9830   -7.0119   -2.1278 C.ar    1  UNL1        0.0259
     27 C          19.9294   -7.9515   -1.0776 C.ar    1  UNL1       -0.1155
     28 C          21.5961  -10.9207   -2.6334 C.ar    1  UNL1       -0.1502
     29 C          21.8643  -11.5991   -3.8403 C.ar    1  UNL1       -0.1011
     30 C          21.9804  -11.8653   -1.5982 C.ar    1  UNL1       -0.1514
     31 N          22.3696  -12.8470   -3.4830 N.ar    1  UNL1       -0.1625
     32 N          22.4411  -13.0103   -2.1599 N.ar    1  UNL1       -0.0801
     33 H          15.5754   -4.3937   -1.9835 H       1  UNL1        0.1621
     34 H          13.7753   -8.7043    0.0145 H       1  UNL1        0.1527
     35 H          13.6963   -4.3804   -0.3198 H       1  UNL1        0.1388
     36 H          12.8302   -6.4742    0.6585 H       1  UNL1        0.1382
     37 H          18.2654   -6.7547   -4.2213 H       1  UNL1        0.1406
     38 H          16.9412   -5.4777   -4.2169 H       1  UNL1        0.1298
     39 H          19.5293   -4.0089   -0.6966 H       1  UNL1        0.1238
     40 H          20.5495   -5.4363   -0.1619 H       1  UNL1        0.1015
     41 H          24.5442   -2.4220   -3.2345 H       1  UNL1        0.1467
     42 H          22.8411   -5.5711   -0.7883 H       1  UNL1        0.1493
     43 H          22.2554   -1.5464   -3.6927 H       1  UNL1        0.1392
     44 H          20.2518   -2.6830   -2.7074 H       1  UNL1        0.1594
     45 H          21.5788   -8.9400   -4.4613 H       1  UNL1        0.1335
     46 H          20.6557   -6.6674   -4.1767 H       1  UNL1        0.1374
     47 H          20.4064   -9.9483   -0.4202 H       1  UNL1        0.1412
     48 H          19.4589   -7.6858   -0.1178 H       1  UNL1        0.1434
     49 H          21.7262  -11.2957   -4.8771 H       1  UNL1        0.1793
     50 H          21.9324  -11.7239   -0.5184 H       1  UNL1        0.1828
     51 H          22.6485  -13.5771   -4.0948 H       1  UNL1        0.2740
@<TRIPOS>BOND
     1    49    29    1
     2    45    22    1
     3    37    10    1
     4    38    10    1
     5    46    24    1
     6    51    31    1
     7    29    31   ar
     8    29    28   ar
     9    43    18    1
    10    10     7    1
    11    10    11    1
    12    22    24   ar
    13    22    23   ar
    14    31    32   ar
    15    24    26   ar
    16    41    16    1
    17    18    16   ar
    18    18    20   ar
    19     7     9   ar
    20     7     1   ar
    21    16    15   ar
    22     9     8   ar
    23    44    20    1
    24    11    13    2
    25    11    12   am
    26    28    23    1
    27    28    30   ar
    28    20    19   ar
    29    23    25   ar
    30    32    30   ar
    31    26    12    1
    32    26    27   ar
    33    15    21    1
    34    15    17   ar
    35    33     3    1
    36     8     2   ar
    37    12    14    1
    38     1     3   ar
    39     1     2   ar
    40    19    17   ar
    41    19    14    1
    42    30    50    1
    43     3     5   ar
    44    17    42    1
    45     2     4   ar
    46    25    27   ar
    47    25    47    1
    48    27    48    1
    49    14    39    1
    50    14    40    1
    51     5    35    1
    52     5     6   ar
    53     4     6   ar
    54     4    34    1
    55     6    36    1

