@<TRIPOS>MOLECULE
*****
 51 55 0 0 0
SMALL
MULLIKEN_CHARGES

@<TRIPOS>ATOM
      1 C          15.6823   -6.3031   -1.9135 C.ar    1  UNL1       -0.0205
      2 C          15.0785   -7.5584   -1.5172 C.ar    1  UNL1       -0.1307
      3 C          15.2183   -5.0812   -1.4161 C.ar    1  UNL1       -0.1253
      4 C          14.0070   -7.5720   -0.6210 C.ar    1  UNL1       -0.0491
      5 C          14.1508   -5.1329   -0.5296 C.ar    1  UNL1       -0.0981
      6 C          13.5586   -6.3490   -0.1401 C.ar    1  UNL1       -0.1564
      7 N          16.7073   -6.6939   -2.8020 N.ar    1  UNL1       -0.2044
      8 N          15.7974   -8.5814   -2.2083 N.ar    1  UNL1       -0.0718
      9 N          16.6991   -8.0565   -2.9123 N.ar    1  UNL1        0.0575
     10 C          17.5894   -5.8081   -3.5121 C.3     1  UNL1       -0.0097
     11 C          18.4033   -4.8845   -2.5866 C.2     1  UNL1        0.2918
     12 N          19.4870   -5.3808   -1.8887 N.am    1  UNL1       -0.2785
     13 O          18.0584   -3.6892   -2.4814 O.2     1  UNL1       -0.3731
     14 C          20.2626   -4.5083   -1.0252 C.3     1  UNL1        0.0189
     15 C          23.7439   -3.4323   -2.0879 C.ar    1  UNL1       -0.0672
     16 C          23.4626   -2.3561   -2.9346 C.ar    1  UNL1       -0.1191
     17 C          22.7118   -4.1492   -1.4744 C.ar    1  UNL1       -0.1087
     18 C          22.1350   -1.9961   -3.1631 C.ar    1  UNL1       -0.1275
     19 C          21.3854   -3.7779   -1.7077 C.ar    1  UNL1       -0.1005
     20 C          21.0987   -2.7010   -2.5541 C.ar    1  UNL1       -0.1132
     21 CL         25.3608   -3.8775   -1.8013 Cl      1  UNL1       -0.0185
     22 C          21.0675   -8.4272   -3.3627 C.ar    1  UNL1       -0.1208
     23 C          20.9192   -9.3517   -2.3183 C.ar    1  UNL1        0.0233
     24 C          20.5969   -7.1253   -3.2360 C.ar    1  UNL1       -0.1350
     25 C          20.2922   -8.9412   -1.1329 C.ar    1  UNL1       -0.0927
     26 C          19.9545   -6.7155   -2.0502 C.ar    1  UNL1        0.0266
     27 C          19.8144   -7.6421   -0.9964 C.ar    1  UNL1       -0.1240
     28 C          21.4031  -10.7079   -2.4775 C.ar    1  UNL1       -0.0915
     29 C          21.6788  -11.3584   -3.7042 C.ar    1  UNL1       -0.1420
     30 N          21.6621  -11.5909   -1.4137 N.ar    1  UNL1       -0.1272
     31 N          22.1066  -12.6411   -3.3803 N.ar    1  UNL1       -0.2060
     32 C          22.0812  -12.7377   -1.9821 C.ar    1  UNL1       -0.0964
     33 H          15.6904   -4.1314   -1.7108 H       1  UNL1        0.1654
     34 H          13.5439   -8.5198   -0.3125 H       1  UNL1        0.1522
     35 H          13.7538   -4.1928   -0.1151 H       1  UNL1        0.1384
     36 H          12.7170   -6.3247    0.5688 H       1  UNL1        0.1375
     37 H          18.2901   -6.4046   -4.1638 H       1  UNL1        0.1402
     38 H          16.9642   -5.1292   -4.1646 H       1  UNL1        0.1269
     39 H          19.5567   -3.7418   -0.5867 H       1  UNL1        0.1218
     40 H          20.6768   -5.1384   -0.1860 H       1  UNL1        0.1036
     41 H          24.2790   -1.7973   -3.4161 H       1  UNL1        0.1463
     42 H          22.9440   -4.9988   -0.8138 H       1  UNL1        0.1497
     43 H          21.9067   -1.1493   -3.8274 H       1  UNL1        0.1387
     44 H          20.0469   -2.4181   -2.7312 H       1  UNL1        0.1615
     45 H          21.5690   -8.7300   -4.2943 H       1  UNL1        0.1326
     46 H          20.7409   -6.4160   -4.0658 H       1  UNL1        0.1377
     47 H          20.1693   -9.6519   -0.3000 H       1  UNL1        0.1595
     48 H          19.3214   -7.3449   -0.0573 H       1  UNL1        0.1432
     49 H          21.5902  -11.0090   -4.7309 H       1  UNL1        0.1804
     50 H          22.3690  -13.3459   -4.0156 H       1  UNL1        0.2539
     51 H          22.3727  -13.6471   -1.4463 H       1  UNL1        0.2005
@<TRIPOS>BOND
     1    49    29    1
     2    45    22    1
     3    38    10    1
     4    37    10    1
     5    46    24    1
     6    50    31    1
     7    43    18    1
     8    29    31   ar
     9    29    28   ar
    10    10     7    1
    11    10    11    1
    12    41    16    1
    13    31    32   ar
    14    22    24   ar
    15    22    23   ar
    16    24    26   ar
    17    18    16   ar
    18    18    20   ar
    19    16    15   ar
    20     9     7   ar
    21     9     8   ar
    22     7     1   ar
    23    44    20    1
    24    11    13    2
    25    11    12   am
    26    20    19   ar
    27    28    23    1
    28    28    30   ar
    29    23    25   ar
    30     8     2   ar
    31    15    21    1
    32    15    17   ar
    33    26    12    1
    34    26    27   ar
    35    32    51    1
    36    32    30   ar
    37     1     2   ar
    38     1     3   ar
    39    12    14    1
    40    33     3    1
    41    19    17   ar
    42    19    14    1
    43     2     4   ar
    44    17    42    1
    45     3     5   ar
    46    25    27   ar
    47    25    47    1
    48    14    39    1
    49    14    40    1
    50    27    48    1
    51     4    34    1
    52     4     6   ar
    53     5     6   ar
    54     5    35    1
    55     6    36    1

