@<TRIPOS>MOLECULE
C:\Users\Asus\Downloads\Iniciação científica\Pre-qsarmodeling\Arquivos saída MOPAC\Molecula40.out
 50 54 0 0 0
SMALL
MULLIKEN_CHARGES

@<TRIPOS>ATOM
      1 CL         22.8212  -15.6600   -2.7368 Cl      1  UNL1       -0.0077
      2 C          22.6178  -14.0161   -2.3569 C.ar    1  UNL1       -0.0574
      3 C          23.1189  -13.5161   -1.1498 C.ar    1  UNL1       -0.1210
      4 C          22.9448  -12.1673   -0.8494 C.ar    1  UNL1       -0.1184
      5 C          22.2777  -11.3229   -1.7377 C.ar    1  UNL1       -0.1281
      6 C          21.7742  -11.8239   -2.9406 C.ar    1  UNL1       -0.1020
      7 C          21.9478  -13.1791   -3.2516 C.ar    1  UNL1       -0.1236
      8 C          21.0638  -10.9683   -3.9573 C.3     1  UNL1        0.0215
      9 N          20.4320   -9.7690   -3.4682 N.am    1  UNL1       -0.3007
     10 C          21.1106   -8.5552   -3.3128 C.2     1  UNL1        0.2885
     11 O          20.5824   -7.5929   -2.7399 O.2     1  UNL1       -0.2941
     12 C          22.5409   -8.4865   -3.8813 C.3     1  UNL1       -0.0213
     13 N          23.2775   -7.2989   -3.5393 N.ar    1  UNL1       -0.1936
     14 N          23.0373   -6.0632   -4.0948 N.ar    1  UNL1        0.0678
     15 N          23.5453   -5.1329   -3.4248 N.ar    1  UNL1       -0.0562
     16 C          24.1528   -5.6722   -2.2429 C.ar    1  UNL1       -0.1219
     17 C          24.8481   -5.1030   -1.1774 C.ar    1  UNL1       -0.0417
     18 C          25.3190   -5.9603   -0.1873 C.ar    1  UNL1       -0.1555
     19 C          25.1133   -7.3479   -0.2490 C.ar    1  UNL1       -0.0946
     20 C          24.4305   -7.9473   -1.3030 C.ar    1  UNL1       -0.1330
     21 C          23.9457   -7.1043   -2.3029 C.ar    1  UNL1       -0.0198
     22 C          19.0415   -9.8658   -3.1470 C.ar    1  UNL1        0.1016
     23 C          18.6036  -10.8800   -2.2534 C.ar    1  UNL1       -0.1797
     24 C          17.2465  -10.9840   -1.9654 C.ar    1  UNL1       -0.0904
     25 C          16.3369  -10.0909   -2.5505 C.ar    1  UNL1       -0.0381
     26 C          16.8715   -9.1111   -3.4253 C.ar    1  UNL1       -0.0469
     27 N          18.1680   -8.9896   -3.7322 N.ar    1  UNL1       -0.1215
     28 C          14.9319  -10.1644   -2.2868 C.ar    1  UNL1       -0.1428
     29 C          14.2371  -11.1472   -1.5496 C.ar    1  UNL1       -0.1054
     30 N          12.8934  -10.7822   -1.5794 N.ar    1  UNL1       -0.1613
     31 N          12.6839   -9.6591   -2.2692 N.ar    1  UNL1       -0.0773
     32 C          13.8934   -9.2438   -2.7197 C.ar    1  UNL1       -0.1511
     33 H          23.6414  -14.1806   -0.4452 H       1  UNL1        0.1516
     34 H          23.3346  -11.7657    0.0985 H       1  UNL1        0.1420
     35 H          22.1450  -10.2619   -1.4723 H       1  UNL1        0.1443
     36 H          21.5553  -13.5826   -4.1981 H       1  UNL1        0.1496
     37 H          21.8123  -10.6925   -4.7587 H       1  UNL1        0.0997
     38 H          20.2697  -11.6026   -4.4544 H       1  UNL1        0.1136
     39 H          23.1385   -9.3629   -3.4950 H       1  UNL1        0.1229
     40 H          22.4634   -8.5434   -5.0067 H       1  UNL1        0.1418
     41 H          25.0141   -4.0174   -1.1246 H       1  UNL1        0.1551
     42 H          25.8675   -5.5412    0.6701 H       1  UNL1        0.1391
     43 H          25.5020   -7.9801    0.5646 H       1  UNL1        0.1356
     44 H          24.2781   -9.0341   -1.3432 H       1  UNL1        0.1385
     45 H          19.3279  -11.5704   -1.7968 H       1  UNL1        0.1518
     46 H          16.8918  -11.7632   -1.2746 H       1  UNL1        0.1362
     47 H          16.2039   -8.3782   -3.9163 H       1  UNL1        0.1662
     48 H          14.5899  -12.0379   -1.0327 H       1  UNL1        0.1778
     49 H          14.0109   -8.3378   -3.3141 H       1  UNL1        0.1853
     50 H          12.1326  -11.2636   -1.1614 H       1  UNL1        0.2748
@<TRIPOS>BOND
     1    40    12    1
     2    37     8    1
     3    38     8    1
     4    36     7    1
     5    14    13   ar
     6    14    15   ar
     7     8     9    1
     8     8     6    1
     9    47    26    1
    10    12    13    1
    11    12    39    1
    12    12    10    1
    13    27    26   ar
    14    27    22   ar
    15    13    21   ar
    16     9    10   am
    17     9    22    1
    18    26    25   ar
    19    15    16   ar
    20    49    32    1
    21    10    11    2
    22     7     6   ar
    23     7     2   ar
    24    22    23   ar
    25     6     5   ar
    26     1     2    1
    27    32    28   ar
    28    32    31   ar
    29    25    28    1
    30    25    24   ar
    31     2     3   ar
    32    21    16   ar
    33    21    20   ar
    34    28    29   ar
    35    31    30   ar
    36    23    24   ar
    37    23    45    1
    38    16    17   ar
    39    24    46    1
    40     5    35    1
    41     5     4   ar
    42    30    29   ar
    43    30    50    1
    44    29    48    1
    45    44    20    1
    46    20    19   ar
    47    17    41    1
    48    17    18   ar
    49     3     4   ar
    50     3    33    1
    51     4    34    1
    52    19    18   ar
    53    19    43    1
    54    18    42    1
