@<TRIPOS>MOLECULE
./Mol08.log
 50 54 0 0 0
SMALL
GASTEIGER

@<TRIPOS>ATOM
      1 O          -3.3036   -2.6508    0.3761 O.2     1  UNL1       -0.4774
      2 C          -2.2823   -3.2077    0.7568 C.2     1  UNL1        0.4437
      3 C          -1.0193   -2.3620    1.0003 C.3     1  UNL1       -0.0754
      4 N           0.1504   -2.8095    0.2633 N.ar    1  UNL1        0.2647
      5 N           0.0204   -3.2865   -1.0084 N.ar    1  UNL1       -0.1901
      6 N           1.1875   -3.5615   -1.4887 N.ar    1  UNL1       -0.3667
      7 C           2.1351   -3.2509   -0.5335 C.ar    1  UNL1        0.4143
      8 C           1.4741   -2.7567    0.6116 C.ar    1  UNL1       -0.0737
      9 C           2.1731   -2.3489    1.7606 C.ar    1  UNL1       -0.1684
     10 C           3.5570   -2.4627    1.7145 C.ar    1  UNL1       -0.0970
     11 C           4.2327   -2.9603    0.5706 C.ar    1  UNL1       -0.0539
     12 C           3.5370   -3.3589   -0.5624 C.ar    1  UNL1       -0.2379
     13 N          -2.2195   -4.5587    0.9896 N.am    1  UNL1       -0.2899
     14 C          -3.4236   -5.3573    0.6641 C.3     1  UNL1        0.1787
     15 C          -4.4175   -5.4643    1.7984 C.ar    1  UNL1        0.0767
     16 C          -5.3284   -4.4816    2.1107 C.ar    1  UNL1       -0.2454
     17 S          -6.3135   -4.9186    3.4705 S.2     1  UNL1        0.0174
     18 C          -5.4992   -6.4463    3.6295 C.ar    1  UNL1       -0.1693
     19 C          -4.5231   -6.5926    2.6796 C.ar    1  UNL1       -0.1526
     20 C          -1.1273   -5.2161    1.6450 C.ar    1  UNL1        0.2076
     21 C          -0.2404   -6.0134    0.9086 C.ar    1  UNL1       -0.1114
     22 C           0.8019   -6.6789    1.5508 C.ar    1  UNL1       -0.1498
     23 C           0.9919   -6.5660    2.9416 C.ar    1  UNL1        0.0791
     24 C           0.0897   -5.7701    3.6696 C.ar    1  UNL1       -0.1658
     25 C          -0.9634   -5.1106    3.0324 C.ar    1  UNL1       -0.1001
     26 C           2.1136   -7.2648    3.6171 C.ar    1  UNL1       -0.1446
     27 C           1.9485   -7.8651    4.8805 C.ar    1  UNL1        0.3207
     28 N           2.9124   -8.5049    5.5508 N.ar    1  UNL1       -0.5356
     29 C           4.1173   -8.5811    4.9694 C.ar    1  UNL1        0.3392
     30 C           4.4011   -8.0343    3.7150 C.ar    1  UNL1       -0.2954
     31 C           3.3867   -7.3657    3.0320 C.ar    1  UNL1        0.1099
     32 H          -0.7606   -2.3657    2.0690 H       1  UNL1        0.0618
     33 H          -1.2937   -1.3392    0.7063 H       1  UNL1        0.0742
     34 H           1.6648   -1.9616    2.6449 H       1  UNL1        0.1133
     35 H           4.1441   -2.1576    2.5835 H       1  UNL1        0.0945
     36 H           5.3227   -3.0238    0.5875 H       1  UNL1        0.0882
     37 H           4.0437   -3.7393   -1.4507 H       1  UNL1        0.1256
     38 H          -3.8896   -4.8784   -0.2058 H       1  UNL1        0.0064
     39 H          -3.0768   -6.3579    0.3714 H       1  UNL1        0.0033
     40 H          -5.4528   -3.5224    1.6129 H       1  UNL1        0.2076
     41 H          -5.7944   -7.1455    4.4091 H       1  UNL1        0.1625
     42 H          -3.8954   -7.4814    2.5984 H       1  UNL1        0.0906
     43 H          -0.3629   -6.0903   -0.1728 H       1  UNL1        0.1266
     44 H           1.4751   -7.3057    0.9629 H       1  UNL1        0.1050
     45 H           0.2198   -5.6516    4.7469 H       1  UNL1        0.1059
     46 H          -1.6673   -4.5090    3.6104 H       1  UNL1        0.0933
     47 H           0.9675   -7.8407    5.3671 H       1  UNL1        0.0157
     48 H           4.8942   -9.1053    5.5359 H       1  UNL1        0.0137
     49 H           5.4022   -8.1219    3.2877 H       1  UNL1        0.1200
     50 H           3.5842   -6.9020    2.0629 H       1  UNL1        0.0403
@<TRIPOS>BOND
     1     2     1    2
     2     2     3    1
     3     3    33    1
     4     3    32    1
     5     4     8   ar
     6     4     3    1
     7     5     4   ar
     8     6     5   ar
     9     6     7   ar
    10     7     8   ar
    11     8     9   ar
    12     9    34    1
    13    10     9   ar
    14    10    35    1
    15    11    36    1
    16    11    10   ar
    17    12     7   ar
    18    12    11   ar
    19    13    20    1
    20    13     2   am
    21    14    15    1
    22    14    13    1
    23    15    16   ar
    24    16    40    1
    25    16    17   ar
    26    18    41    1
    27    18    17   ar
    28    19    15   ar
    29    19    18   ar
    30    20    25   ar
    31    21    22   ar
    32    21    20   ar
    33    22    23   ar
    34    23    26    1
    35    23    24   ar
    36    24    45    1
    37    25    24   ar
    38    25    46    1
    39    26    27   ar
    40    27    28   ar
    41    27    47    1
    42    29    48    1
    43    29    28   ar
    44    30    29   ar
    45    31    30   ar
    46    31    26   ar
    47    37    12    1
    48    38    14    1
    49    39    14    1
    50    42    19    1
    51    43    21    1
    52    44    22    1
    53    49    30    1
    54    50    31    1
