@<TRIPOS>MOLECULE
./Mol09.log
 41 44 0 0 0
SMALL
GASTEIGER

@<TRIPOS>ATOM
      1 O          -0.4122   -0.4666    2.1360 O.2     1  UNL1       -0.4831
      2 C          -1.1515   -0.9861    1.3025 C.2     1  UNL1        0.4285
      3 C          -1.0410   -2.4952    1.0359 C.3     1  UNL1        0.0317
      4 N           0.1507   -2.8100    0.2650 N.ar    1  UNL1        0.2433
      5 N           0.0204   -3.2987   -1.0064 N.ar    1  UNL1       -0.1925
      6 N           1.1878   -3.5561   -1.4913 N.ar    1  UNL1       -0.3664
      7 C           2.1352   -3.2449   -0.5358 C.ar    1  UNL1        0.4345
      8 C           3.5373   -3.3572   -0.5643 C.ar    1  UNL1       -0.2884
      9 C           4.2312   -2.9678    0.5722 C.ar    1  UNL1       -0.0329
     10 C           3.5556   -2.4669    1.7154 C.ar    1  UNL1       -0.1257
     11 C           2.1729   -2.3419    1.7616 C.ar    1  UNL1       -0.1079
     12 C           1.4762   -2.7520    0.6111 C.ar    1  UNL1       -0.0880
     13 N          -2.0614   -0.2620    0.5794 N.am    1  UNL1       -0.2930
     14 C          -2.1013    1.2025    0.8101 C.3     1  UNL1        0.1538
     15 C          -3.0169    1.6364    1.9321 C.ar    1  UNL1        0.0897
     16 C          -4.3276    2.1897    1.7403 C.ar    1  UNL1       -0.1121
     17 C          -4.9575    2.5055    2.9153 C.ar    1  UNL1       -0.1875
     18 S          -3.9599    2.1323    4.2887 S.2     1  UNL1        0.0260
     19 C          -2.6860    1.5504    3.2648 C.ar    1  UNL1       -0.2601
     20 C          -3.0006   -0.8270   -0.3529 C.ar    1  UNL1        0.3622
     21 C          -2.6039   -1.1083   -1.6666 C.ar    1  UNL1       -0.2546
     22 C          -3.5287   -1.6266   -2.5768 C.ar    1  UNL1       -0.0545
     23 C          -4.8510   -1.8536   -2.1843 C.ar    1  UNL1       -0.0885
     24 C          -5.2476   -1.5681   -0.8741 C.ar    1  UNL1       -0.0876
     25 C          -4.3258   -1.0567    0.0436 C.ar    1  UNL1       -0.1440
     26 H          -0.9757   -2.9854    2.0188 H       1  UNL1        0.0416
     27 H          -1.8870   -2.9077    0.4767 H       1  UNL1       -0.0240
     28 H           4.0437   -3.7384   -1.4523 H       1  UNL1        0.1350
     29 H           5.3207   -3.0393    0.5919 H       1  UNL1        0.0836
     30 H           4.1444   -2.1594    2.5825 H       1  UNL1        0.0966
     31 H           1.6513   -1.9161    2.6177 H       1  UNL1        0.1114
     32 H          -1.0703    1.5098    1.0274 H       1  UNL1        0.0139
     33 H          -2.4155    1.6651   -0.1352 H       1  UNL1       -0.0092
     34 H          -4.7760    2.3502    0.7585 H       1  UNL1        0.0754
     35 H          -5.9438    2.9422    3.0575 H       1  UNL1        0.1649
     36 H          -1.7605    1.1637    3.6860 H       1  UNL1        0.2059
     37 H          -1.5674   -0.9432   -1.9629 H       1  UNL1        0.1450
     38 H          -3.2098   -1.8580   -3.5951 H       1  UNL1        0.0969
     39 H          -5.5717   -2.2583   -2.8983 H       1  UNL1        0.0891
     40 H          -6.2785   -1.7483   -0.5610 H       1  UNL1        0.0957
     41 H          -4.6242   -0.8348    1.0693 H       1  UNL1        0.0751
@<TRIPOS>BOND
     1     2     1    2
     2     2    13   am
     3     3     4    1
     4     3     2    1
     5     4     5   ar
     6     4    12   ar
     7     5     6   ar
     8     6     7   ar
     9     7     8   ar
    10     8    28    1
    11     9     8   ar
    12     9    29    1
    13    10     9   ar
    14    11    12   ar
    15    11    10   ar
    16    12     7   ar
    17    13    14    1
    18    14    32    1
    19    14    33    1
    20    15    16   ar
    21    15    14    1
    22    16    34    1
    23    17    16   ar
    24    18    19   ar
    25    18    17   ar
    26    19    15   ar
    27    20    13    1
    28    20    21   ar
    29    21    37    1
    30    22    21   ar
    31    22    38    1
    32    23    22   ar
    33    24    25   ar
    34    24    23   ar
    35    25    20   ar
    36    26     3    1
    37    27     3    1
    38    30    10    1
    39    31    11    1
    40    35    17    1
    41    36    19    1
    42    39    23    1
    43    40    24    1
    44    41    25    1
