@<TRIPOS>MOLECULE
./Mol01.log
 52 56 0 0 0
SMALL
GASTEIGER

@<TRIPOS>ATOM
      1 O          -0.6045   -4.3437    2.3702 O.2     1  UNL1       -0.5200
      2 C          -1.3346   -3.3962    2.1440 C.2     1  UNL1        0.6334
      3 C          -1.0272   -2.4163    0.9927 C.3     1  UNL1       -0.0460
      4 N           0.1532   -2.7969    0.2603 N.ar    1  UNL1        0.2971
      5 N           0.0220   -3.2886   -1.0100 N.ar    1  UNL1       -0.2151
      6 N           1.1864   -3.5620   -1.4886 N.ar    1  UNL1       -0.3515
      7 C           2.1342   -3.2562   -0.5309 C.ar    1  UNL1        0.4229
      8 C           3.5361   -3.3586   -0.5623 C.ar    1  UNL1       -0.2694
      9 C           4.2326   -2.9545    0.5682 C.ar    1  UNL1       -0.0388
     10 C           3.5568   -2.4598    1.7129 C.ar    1  UNL1       -0.1183
     11 C           2.1724   -2.3558    1.7631 C.ar    1  UNL1       -0.1441
     12 C           1.4735   -2.7635    0.6150 C.ar    1  UNL1       -0.0713
     13 N          -2.4769   -3.1199    2.8793 N.am    1  UNL1       -0.4558
     14 C          -3.2864   -1.9186    2.6413 C.3     1  UNL1        0.1142
     15 C          -2.7520   -0.6501    3.2777 C.ar    1  UNL1        0.1286
     16 C          -3.2204    0.6566    2.9095 C.ar    1  UNL1       -0.1545
     17 C          -2.6356    1.6610    3.6334 C.ar    1  UNL1       -0.1750
     18 S          -1.4948    1.0366    4.7844 S.2     1  UNL1        0.0307
     19 C          -1.8151   -0.5953    4.2803 C.ar    1  UNL1       -0.2431
     20 C          -2.8698   -4.0118    3.9393 C.ar    1  UNL1        0.2721
     21 C          -4.1752   -4.5155    3.9837 C.ar    1  UNL1       -0.1738
     22 C          -4.6004   -5.3588    5.0111 C.ar    1  UNL1       -0.1752
     23 C          -3.6951   -5.7368    6.0169 C.ar    1  UNL1        0.3369
     24 C          -2.3767   -5.2507    5.9604 C.ar    1  UNL1       -0.2269
     25 C          -1.9674   -4.3992    4.9390 C.ar    1  UNL1       -0.1694
     26 N          -4.0321   -6.5897    7.0856 N.am    1  UNL1       -0.5750
     27 C          -5.2482   -7.1725    7.3802 C.2     1  UNL1        0.6397
     28 O          -6.2601   -7.0179    6.7066 O.2     1  UNL1       -0.4557
     29 C          -5.2339   -8.0248    8.6130 C.3     1  UNL1       -0.2681
     30 C          -6.1450   -9.2439    8.6144 C.3     1  UNL1       -0.1194
     31 C          -6.5105   -8.0528    9.4416 C.3     1  UNL1       -0.1409
     32 H          -1.8448   -2.4143    0.2583 H       1  UNL1        0.0117
     33 H          -0.9183   -1.3918    1.3834 H       1  UNL1       -0.0055
     34 H           4.0423   -3.7422   -1.4494 H       1  UNL1        0.1303
     35 H           5.3225   -3.0184    0.5845 H       1  UNL1        0.0821
     36 H           4.1443   -2.1568    2.5826 H       1  UNL1        0.0963
     37 H           1.6601   -1.9881    2.6527 H       1  UNL1        0.1110
     38 H          -3.4197   -1.7599    1.5603 H       1  UNL1        0.0853
     39 H          -4.2931   -2.1191    3.0346 H       1  UNL1        0.0064
     40 H          -3.9639    0.8362    2.1312 H       1  UNL1        0.0964
     41 H          -2.8009    2.7334    3.5528 H       1  UNL1        0.1696
     42 H          -1.3050   -1.4244    4.7642 H       1  UNL1        0.1627
     43 H          -4.8842   -4.2575    3.1941 H       1  UNL1        0.1332
     44 H          -5.6177   -5.7390    5.0383 H       1  UNL1        0.1240
     45 H          -1.6569   -5.5439    6.7303 H       1  UNL1        0.1261
     46 H          -0.9356   -4.0527    4.9071 H       1  UNL1        0.1455
     47 H          -3.2734   -6.7967    7.7243 H       1  UNL1        0.2905
     48 H          -4.2862   -8.1087    9.1514 H       1  UNL1        0.1332
     49 H          -6.7118   -9.4073    7.6958 H       1  UNL1        0.0778
     50 H          -5.7735  -10.1408    9.1143 H       1  UNL1        0.0855
     51 H          -6.3974   -8.1077   10.5262 H       1  UNL1        0.0910
     52 H          -7.3212   -7.4204    9.0753 H       1  UNL1        0.0788
@<TRIPOS>BOND
     1     2     1    2
     2     3     4    1
     3     3    33    1
     4     3     2    1
     5     4    12   ar
     6     5     6   ar
     7     5     4   ar
     8     6     7   ar
     9     7    12   ar
    10     7     8   ar
    11     8     9   ar
    12     9    10   ar
    13     9    35    1
    14    10    36    1
    15    11    37    1
    16    11    10   ar
    17    12    11   ar
    18    13     2   am
    19    13    20    1
    20    14    13    1
    21    14    15    1
    22    15    19   ar
    23    16    15   ar
    24    16    17   ar
    25    17    18   ar
    26    19    42    1
    27    19    18   ar
    28    20    25   ar
    29    21    22   ar
    30    21    20   ar
    31    22    23   ar
    32    23    26    1
    33    23    24   ar
    34    24    45    1
    35    25    24   ar
    36    25    46    1
    37    26    47    1
    38    27    26   am
    39    27    29    1
    40    28    27    2
    41    29    48    1
    42    30    31    1
    43    30    50    1
    44    30    29    1
    45    31    29    1
    46    31    51    1
    47    32     3    1
    48    34     8    1
    49    38    14    1
    50    39    14    1
    51    40    16    1
    52    41    17    1
    53    43    21    1
    54    44    22    1
    55    49    30    1
    56    52    31    1
