@<TRIPOS>MOLECULE
./Mol07.log
 51 55 0 0 0
SMALL
GASTEIGER

@<TRIPOS>ATOM
      1 O          -3.2835   -2.4535    0.2719 O.2     1  UNL1       -0.4847
      2 C          -2.1935   -1.8974    0.2345 C.2     1  UNL1        0.4525
      3 C          -1.0274   -2.4852    1.0493 C.3     1  UNL1       -0.0534
      4 N           0.1514   -2.7972    0.2585 N.ar    1  UNL1        0.2475
      5 N           0.0197   -3.2973   -1.0041 N.ar    1  UNL1       -0.1889
      6 N           1.1875   -3.5608   -1.4890 N.ar    1  UNL1       -0.3692
      7 C           2.1351   -3.2507   -0.5335 C.ar    1  UNL1        0.4203
      8 C           1.4742   -2.7555    0.6111 C.ar    1  UNL1       -0.0534
      9 C           2.1726   -2.3540    1.7626 C.ar    1  UNL1       -0.2094
     10 C           3.5568   -2.4650    1.7153 C.ar    1  UNL1       -0.0643
     11 C           4.2328   -2.9589    0.5701 C.ar    1  UNL1       -0.0557
     12 C           3.5372   -3.3563   -0.5634 C.ar    1  UNL1       -0.2478
     13 N          -1.9682   -0.7586   -0.4966 N.am    1  UNL1       -0.2924
     14 C          -3.0799   -0.2677   -1.3422 C.3     1  UNL1        0.1578
     15 C          -4.0238    0.6779   -0.6341 C.ar    1  UNL1        0.1033
     16 C          -5.0300    0.2642    0.2078 C.ar    1  UNL1       -0.2554
     17 S          -5.9227    1.6023    0.8588 S.2     1  UNL1        0.0130
     18 C          -4.9385    2.7423   -0.0097 C.ar    1  UNL1       -0.1576
     19 C          -3.9784    2.1077   -0.7529 C.ar    1  UNL1       -0.1719
     20 C          -0.7881    0.0493   -0.3914 C.ar    1  UNL1        0.2058
     21 C          -0.6030    0.8967    0.7087 C.ar    1  UNL1       -0.1032
     22 C           0.5352    1.7007    0.7947 C.ar    1  UNL1       -0.1437
     23 C           1.5082    1.6945   -0.2209 C.ar    1  UNL1        0.0511
     24 C           1.2979    0.8506   -1.3286 C.ar    1  UNL1       -0.1397
     25 C           0.1690    0.0378   -1.4150 C.ar    1  UNL1       -0.1230
     26 C           2.7211    2.5497   -0.1271 C.ar    1  UNL1        0.0810
     27 C           2.6495    3.8524    0.4005 C.ar    1  UNL1       -0.1343
     28 C           3.7891    4.6542    0.4891 C.ar    1  UNL1       -0.0468
     29 C           5.0262    4.1709    0.0527 C.ar    1  UNL1       -0.1156
     30 C           5.1128    2.8785   -0.4731 C.ar    1  UNL1       -0.0481
     31 C           3.9733    2.0766   -0.5622 C.ar    1  UNL1       -0.1174
     32 H          -1.4293   -3.3939    1.5190 H       1  UNL1        0.0690
     33 H          -0.7221   -1.7830    1.8381 H       1  UNL1        0.0523
     34 H           1.6637   -1.9743    2.6497 H       1  UNL1        0.1245
     35 H           4.1435   -2.1646    2.5862 H       1  UNL1        0.0842
     36 H           5.3223   -3.0280    0.5893 H       1  UNL1        0.0862
     37 H           4.0437   -3.7408   -1.4500 H       1  UNL1        0.1279
     38 H          -2.6275    0.2321   -2.2099 H       1  UNL1        0.0083
     39 H          -3.6224   -1.1550   -1.6912 H       1  UNL1        0.0101
     40 H          -5.2742   -0.7598    0.4818 H       1  UNL1        0.2112
     41 H          -5.1322    3.8095    0.0756 H       1  UNL1        0.1576
     42 H          -3.2572    2.6375   -1.3772 H       1  UNL1        0.0945
     43 H          -1.3582    0.9232    1.4968 H       1  UNL1        0.0894
     44 H           0.6766    2.3327    1.6736 H       1  UNL1        0.0952
     45 H           2.0254    0.8384   -2.1422 H       1  UNL1        0.1014
     46 H           0.0296   -0.6266   -2.2692 H       1  UNL1        0.1294
     47 H           1.6846    4.2515    0.7209 H       1  UNL1        0.0880
     48 H           3.7080    5.6658    0.8936 H       1  UNL1        0.0776
     49 H           5.9176    4.7983    0.1216 H       1  UNL1        0.0876
     50 H           6.0759    2.4874   -0.8093 H       1  UNL1        0.0832
     51 H           4.0594    1.0587   -0.9484 H       1  UNL1        0.0661
@<TRIPOS>BOND
     1     2     1    2
     2     2     3    1
     3     3    32    1
     4     3    33    1
     5     4     8   ar
     6     4     3    1
     7     5     4   ar
     8     6     5   ar
     9     6     7   ar
    10     7     8   ar
    11     8     9   ar
    12     9    34    1
    13    10     9   ar
    14    10    35    1
    15    11    36    1
    16    11    10   ar
    17    12     7   ar
    18    12    11   ar
    19    13    20    1
    20    13     2   am
    21    14    15    1
    22    14    13    1
    23    15    16   ar
    24    16    40    1
    25    16    17   ar
    26    18    41    1
    27    18    17   ar
    28    19    15   ar
    29    19    18   ar
    30    20    21   ar
    31    21    22   ar
    32    21    43    1
    33    22    44    1
    34    23    26    1
    35    23    22   ar
    36    24    23   ar
    37    25    24   ar
    38    25    20   ar
    39    26    27   ar
    40    27    28   ar
    41    27    47    1
    42    28    48    1
    43    29    49    1
    44    29    28   ar
    45    30    29   ar
    46    31    30   ar
    47    31    26   ar
    48    37    12    1
    49    38    14    1
    50    39    14    1
    51    42    19    1
    52    45    24    1
    53    46    25    1
    54    50    30    1
    55    51    31    1
