@<TRIPOS>MOLECULE
./Mol17.log
 48 52 0 0 0
SMALL
GASTEIGER

@<TRIPOS>ATOM
      1 S          -3.0967   -5.4595    5.9385 S.2     1  UNL1        0.0180
      2 C          -4.4214   -4.3712    5.6888 C.ar    1  UNL1       -0.1937
      3 C          -2.2363   -4.8147    4.5742 C.ar    1  UNL1       -0.3093
      4 C          -4.2114   -3.5556    4.6111 C.ar    1  UNL1       -0.1162
      5 C          -2.9506   -3.8053    3.9621 C.ar    1  UNL1        0.2631
      6 N          -2.5444   -3.0573    2.8137 N.am    1  UNL1       -0.4457
      7 C          -5.1937   -0.0118    1.4119 C.ar    1  UNL1        0.1037
      8 C          -5.2632   -1.3253    0.9025 C.ar    1  UNL1       -0.1674
      9 C          -4.2092    0.2649    2.3830 C.ar    1  UNL1       -0.1822
     10 C          -4.4025   -2.3201    1.3676 C.ar    1  UNL1       -0.0534
     11 C          -3.3464   -0.7273    2.8454 C.ar    1  UNL1       -0.0811
     12 C          -3.4374   -2.0275    2.3362 C.ar    1  UNL1        0.3114
     13 C          -1.3350   -3.2882    2.1753 C.2     1  UNL1        0.6709
     14 C          -1.0303   -2.3762    0.9705 C.3     1  UNL1       -0.1136
     15 O          -0.5326   -4.1320    2.5363 O.2     1  UNL1       -0.5490
     16 C           1.4731   -2.7621    0.6150 C.ar    1  UNL1       -0.0994
     17 N           0.1521   -2.7966    0.2601 N.ar    1  UNL1        0.3482
     18 C           2.1341   -3.2564   -0.5300 C.ar    1  UNL1        0.4185
     19 N           0.0222   -3.2872   -1.0115 N.ar    1  UNL1       -0.2096
     20 N           1.1867   -3.5638   -1.4877 N.ar    1  UNL1       -0.3565
     21 C           2.1728   -2.3578    1.7641 C.ar    1  UNL1       -0.1188
     22 C           3.5571   -2.4598    1.7126 C.ar    1  UNL1       -0.1064
     23 C           3.5362   -3.3592   -0.5621 C.ar    1  UNL1       -0.2724
     24 C           4.2331   -2.9529    0.5671 C.ar    1  UNL1       -0.0496
     25 C          -7.8310    3.1341    0.1176 C.ar    1  UNL1        0.0101
     26 N          -7.4792    2.1227   -0.7225 N.ar    1  UNL1       -0.3056
     27 C          -7.3595    3.1418    1.4003 C.ar    1  UNL1       -0.1788
     28 C          -6.6607    1.0214   -0.4048 C.ar    1  UNL1        0.5224
     29 C          -6.5014    2.0829    1.8050 C.ar    1  UNL1       -0.0207
     30 C          -6.1238    1.0536    0.9645 C.ar    1  UNL1       -0.1147
     31 O          -6.4697    0.1637   -1.2625 O.2     1  UNL1       -0.5279
     32 H          -5.2864   -4.3910    6.3479 H       1  UNL1        0.1751
     33 H          -1.2681   -5.2063    4.2915 H       1  UNL1        0.2454
     34 H          -4.9269   -2.8040    4.2852 H       1  UNL1        0.0383
     35 H          -5.9919   -1.5581    0.1297 H       1  UNL1        0.1371
     36 H          -4.0961    1.2797    2.7687 H       1  UNL1        0.1052
     37 H          -4.4759   -3.3361    0.9744 H       1  UNL1        0.0756
     38 H          -2.5917   -0.4962    3.5999 H       1  UNL1        0.0808
     39 H          -1.8484   -2.3887    0.2397 H       1  UNL1        0.0055
     40 H          -0.9159   -1.3355    1.3153 H       1  UNL1        0.0123
     41 H           1.6598   -2.0054    2.6591 H       1  UNL1        0.1071
     42 H           4.1443   -2.1604    2.5837 H       1  UNL1        0.0880
     43 H           4.0416   -3.7445   -1.4488 H       1  UNL1        0.1330
     44 H           5.3230   -3.0166    0.5833 H       1  UNL1        0.0858
     45 H          -8.4927    3.8988   -0.2911 H       1  UNL1        0.1216
     46 H          -7.8342    2.0985   -1.6748 H       1  UNL1        0.2941
     47 H          -7.6410    3.9357    2.0899 H       1  UNL1        0.1052
     48 H          -6.1405    2.0807    2.8361 H       1  UNL1        0.0956
@<TRIPOS>BOND
     1     1     2   ar
     2     2     4   ar
     3     2    32    1
     4     3     1   ar
     5     3     5   ar
     6     4    34    1
     7     5     6    1
     8     5     4   ar
     9     6    12    1
    10     7    30    1
    11     7     9   ar
    12     8     7   ar
    13     9    36    1
    14    10     8   ar
    15    10    12   ar
    16    11     9   ar
    17    11    38    1
    18    12    11   ar
    19    13    14    1
    20    13     6   am
    21    14    40    1
    22    15    13    2
    23    16    21   ar
    24    17    14    1
    25    17    16   ar
    26    18    23   ar
    27    18    16   ar
    28    19    17   ar
    29    20    19   ar
    30    20    18   ar
    31    21    22   ar
    32    21    41    1
    33    22    42    1
    34    23    24   ar
    35    24    44    1
    36    24    22   ar
    37    25    45    1
    38    25    27   ar
    39    26    25   ar
    40    27    47    1
    41    28    26   ar
    42    28    30   ar
    43    29    27   ar
    44    29    48    1
    45    30    29   ar
    46    31    28    2
    47    33     3    1
    48    35     8    1
    49    37    10    1
    50    39    14    1
    51    43    23    1
    52    46    26    1
