@<TRIPOS>MOLECULE
./Mol13.log
 53 57 0 0 0
SMALL
GASTEIGER

@<TRIPOS>ATOM
      1 O          -0.6076   -4.3810    2.3223 O.2     1  UNL1       -0.4985
      2 C          -1.3528   -3.4433    2.1084 C.2     1  UNL1        0.5924
      3 C          -1.0286   -2.4260    0.9938 C.3     1  UNL1       -0.0006
      4 N           0.1533   -2.7959    0.2597 N.ar    1  UNL1        0.2985
      5 N           0.0218   -3.2897   -1.0104 N.ar    1  UNL1       -0.2290
      6 N           1.1863   -3.5623   -1.4884 N.ar    1  UNL1       -0.3408
      7 C           2.1341   -3.2558   -0.5307 C.ar    1  UNL1        0.4103
      8 C           3.5360   -3.3582   -0.5625 C.ar    1  UNL1       -0.2531
      9 C           4.2325   -2.9544    0.5679 C.ar    1  UNL1       -0.0508
     10 C           3.5570   -2.4603    1.7131 C.ar    1  UNL1       -0.1103
     11 C           2.1726   -2.3561    1.7636 C.ar    1  UNL1       -0.1406
     12 C           1.4737   -2.7630    0.6152 C.ar    1  UNL1       -0.0749
     13 N          -2.5243   -3.2114    2.8221 N.am    1  UNL1       -0.4256
     14 C          -3.3209   -1.9981    2.5947 C.3     1  UNL1        0.1026
     15 C          -2.8002   -0.7379    3.2561 C.ar    1  UNL1        0.1634
     16 C          -3.3325    0.5630    2.9618 C.ar    1  UNL1       -0.2121
     17 C          -2.7319    1.5626    3.6792 C.ar    1  UNL1       -0.1556
     18 S          -1.4978    0.9424    4.7316 S.2     1  UNL1        0.0234
     19 C          -1.7994   -0.6829    4.1963 C.ar    1  UNL1       -0.2016
     20 C          -2.9569   -4.1243    3.8412 C.ar    1  UNL1        0.2481
     21 C          -2.7908   -5.5128    3.6975 C.ar    1  UNL1       -0.2150
     22 C          -3.2608   -6.3786    4.6827 C.ar    1  UNL1       -0.1000
     23 C          -3.8932   -5.8905    5.8327 C.ar    1  UNL1        0.3335
     24 C          -4.0578   -4.5088    5.9767 C.ar    1  UNL1       -0.2253
     25 C          -3.6001   -3.6349    4.9905 C.ar    1  UNL1       -0.0908
     26 N          -4.3727   -6.8229    6.8117 N.pl3   1  UNL1       -0.7335
     27 S          -3.3698   -7.1414    8.2003 S.O2    1  UNL1        1.0063
     28 O          -2.4323   -6.0162    8.4497 O.2     1  UNL1       -0.4833
     29 O          -4.3356   -7.5798    9.2353 O.2     1  UNL1       -0.5198
     30 C          -2.4007   -8.5427    7.6531 C.3     1  UNL1       -0.0618
     31 C          -1.0744   -8.7618    8.3434 C.3     1  UNL1       -0.2772
     32 C          -1.1069   -8.2980    6.9125 C.3     1  UNL1       -0.0397
     33 H          -1.8407   -2.3928    0.2538 H       1  UNL1        0.0124
     34 H          -0.9122   -1.4162    1.4176 H       1  UNL1       -0.0300
     35 H           4.0423   -3.7415   -1.4497 H       1  UNL1        0.1274
     36 H           5.3224   -3.0181    0.5843 H       1  UNL1        0.0862
     37 H           4.1443   -2.1586    2.5832 H       1  UNL1        0.0992
     38 H           1.6610   -1.9900    2.6543 H       1  UNL1        0.1063
     39 H          -3.4216   -1.8252    1.5122 H       1  UNL1        0.0766
     40 H          -4.3403   -2.2117    2.9483 H       1  UNL1        0.0208
     41 H          -4.1316    0.7420    2.2407 H       1  UNL1        0.1159
     42 H          -2.9383    2.6305    3.6480 H       1  UNL1        0.1717
     43 H          -1.2260   -1.5089    4.6123 H       1  UNL1        0.1705
     44 H          -2.2989   -5.9151    2.8162 H       1  UNL1        0.1607
     45 H          -3.1529   -7.4570    4.5568 H       1  UNL1        0.0825
     46 H          -4.5276   -4.1088    6.8771 H       1  UNL1        0.1424
     47 H          -3.7217   -2.5618    5.1408 H       1  UNL1        0.0608
     48 H          -5.2630   -6.5435    7.2321 H       1  UNL1        0.3685
     49 H          -3.0420   -9.3902    7.4052 H       1  UNL1        0.1039
     50 H          -0.7797   -8.0267    9.0948 H       1  UNL1        0.1287
     51 H          -0.8086   -9.7972    8.5651 H       1  UNL1        0.1251
     52 H          -0.8592   -9.0045    6.1173 H       1  UNL1        0.0744
     53 H          -0.8345   -7.2583    6.7232 H       1  UNL1        0.0577
@<TRIPOS>BOND
     1     2     1    2
     2     3     2    1
     3     3     4    1
     4     3    34    1
     5     4    12   ar
     6     5     6   ar
     7     5     4   ar
     8     6     7   ar
     9     7    12   ar
    10     7     8   ar
    11     8     9   ar
    12     9    10   ar
    13     9    36    1
    14    10    37    1
    15    11    38    1
    16    11    10   ar
    17    12    11   ar
    18    13    20    1
    19    13     2   am
    20    14    13    1
    21    14    15    1
    22    15    19   ar
    23    16    15   ar
    24    16    17   ar
    25    17    42    1
    26    17    18   ar
    27    19    43    1
    28    19    18   ar
    29    20    25   ar
    30    21    22   ar
    31    21    20   ar
    32    22    23   ar
    33    23    26    1
    34    23    24   ar
    35    24    46    1
    36    25    24   ar
    37    25    47    1
    38    26    27    1
    39    27    28    2
    40    29    27    2
    41    30    27    1
    42    30    32    1
    43    30    31    1
    44    31    50    1
    45    32    53    1
    46    32    31    1
    47    33     3    1
    48    35     8    1
    49    39    14    1
    50    40    14    1
    51    41    16    1
    52    44    21    1
    53    45    22    1
    54    48    26    1
    55    49    30    1
    56    51    31    1
    57    52    32    1
