@<TRIPOS>MOLECULE
./Mol15.log
 50 54 0 0 0
SMALL
GASTEIGER

@<TRIPOS>ATOM
      1 O          -0.5794   -4.2724    2.4189 O.2     1  UNL1       -0.5037
      2 C          -1.3395   -3.3611    2.1505 C.2     1  UNL1        0.5975
      3 C          -1.0290   -2.4014    0.9826 C.3     1  UNL1       -0.0001
      4 N           0.1530   -2.7966    0.2602 N.ar    1  UNL1        0.3120
      5 N           0.0220   -3.2891   -1.0105 N.ar    1  UNL1       -0.2353
      6 N           1.1864   -3.5629   -1.4882 N.ar    1  UNL1       -0.3377
      7 C           2.1341   -3.2555   -0.5308 C.ar    1  UNL1        0.4050
      8 C           3.5362   -3.3585   -0.5624 C.ar    1  UNL1       -0.2602
      9 C           4.2325   -2.9542    0.5678 C.ar    1  UNL1       -0.0412
     10 C           3.5569   -2.4605    1.7131 C.ar    1  UNL1       -0.1094
     11 C           2.1726   -2.3564    1.7636 C.ar    1  UNL1       -0.1429
     12 C           1.4736   -2.7619    0.6148 C.ar    1  UNL1       -0.0753
     13 N          -2.5150   -3.1074    2.8488 N.am    1  UNL1       -0.4478
     14 C          -3.3303   -1.9215    2.5558 C.3     1  UNL1        0.1403
     15 C          -2.8305   -0.6187    3.1470 C.ar    1  UNL1        0.1451
     16 C          -3.3886    0.6550    2.7878 C.ar    1  UNL1       -0.1933
     17 C          -2.8053    1.7022    3.4490 C.ar    1  UNL1       -0.1542
     18 S          -1.5554    1.1615    4.5267 S.2     1  UNL1        0.0129
     19 C          -1.8278   -0.4954    4.0783 C.ar    1  UNL1       -0.1908
     20 C          -2.9470   -3.9805    3.9030 C.ar    1  UNL1        0.2857
     21 C          -3.5850   -3.4489    5.0351 C.ar    1  UNL1       -0.1132
     22 C          -4.0575   -4.2865    6.0451 C.ar    1  UNL1       -0.1199
     23 C          -3.9061   -5.6804    5.9686 C.ar    1  UNL1       -0.1376
     24 C          -3.2635   -6.1995    4.8291 C.ar    1  UNL1        0.0680
     25 C          -2.7912   -5.3746    3.8135 C.ar    1  UNL1       -0.2489
     26 C          -4.3955   -6.6047    7.0295 C.ar    1  UNL1        0.4615
     27 C          -4.9967   -6.1467    8.2180 C.ar    1  UNL1       -0.3209
     28 C          -5.4304   -7.0706    9.1663 C.ar    1  UNL1        0.1051
     29 C          -5.2579   -8.4328    8.9149 C.ar    1  UNL1       -0.2736
     30 C          -4.6497   -8.7973    7.7106 C.ar    1  UNL1        0.2930
     31 N          -4.2297   -7.9224    6.7940 N.ar    1  UNL1       -0.4967
     32 H          -1.8434   -2.4120    0.2447 H       1  UNL1        0.0102
     33 H          -0.9204   -1.3700    1.3539 H       1  UNL1       -0.0338
     34 H           4.0421   -3.7430   -1.4492 H       1  UNL1        0.1282
     35 H           5.3224   -3.0189    0.5846 H       1  UNL1        0.0816
     36 H           4.1441   -2.1604    2.5839 H       1  UNL1        0.0948
     37 H           1.6603   -1.9953    2.6556 H       1  UNL1        0.1111
     38 H          -3.4349   -1.8090    1.4655 H       1  UNL1        0.0672
     39 H          -4.3455   -2.1311    2.9236 H       1  UNL1        0.0141
     40 H          -4.1934    0.7804    2.0615 H       1  UNL1        0.1067
     41 H          -3.0323    2.7629    3.3628 H       1  UNL1        0.1682
     42 H          -1.2376   -1.2879    4.5335 H       1  UNL1        0.1605
     43 H          -3.7059   -2.3707    5.1453 H       1  UNL1        0.0498
     44 H          -4.5468   -3.8239    6.9030 H       1  UNL1        0.1041
     45 H          -3.1469   -7.2800    4.7529 H       1  UNL1        0.0383
     46 H          -2.2941   -5.8128    2.9516 H       1  UNL1        0.1583
     47 H          -5.1236   -5.0810    8.4078 H       1  UNL1        0.1214
     48 H          -5.8972   -6.7280   10.0927 H       1  UNL1        0.0644
     49 H          -5.5817   -9.1928    9.6283 H       1  UNL1        0.1089
     50 H          -4.4910   -9.8542    7.4696 H       1  UNL1        0.0226
@<TRIPOS>BOND
     1     2     1    2
     2     3     4    1
     3     3     2    1
     4     3    33    1
     5     4    12   ar
     6     5     6   ar
     7     5     4   ar
     8     6     7   ar
     9     7    12   ar
    10     7     8   ar
    11     8     9   ar
    12     9    10   ar
    13     9    35    1
    14    10    36    1
    15    11    37    1
    16    11    10   ar
    17    12    11   ar
    18    13     2   am
    19    13    20    1
    20    14    13    1
    21    14    15    1
    22    15    19   ar
    23    16    15   ar
    24    16    17   ar
    25    17    18   ar
    26    19    42    1
    27    19    18   ar
    28    20    21   ar
    29    21    43    1
    30    21    22   ar
    31    22    44    1
    32    23    22   ar
    33    23    26    1
    34    24    23   ar
    35    25    20   ar
    36    25    24   ar
    37    26    27   ar
    38    27    47    1
    39    27    28   ar
    40    28    48    1
    41    29    49    1
    42    29    28   ar
    43    30    29   ar
    44    31    30   ar
    45    31    26   ar
    46    32     3    1
    47    34     8    1
    48    38    14    1
    49    39    14    1
    50    40    16    1
    51    41    17    1
    52    45    24    1
    53    46    25    1
    54    50    30    1
