@<TRIPOS>MOLECULE
./Mol11.log
 52 56 0 0 0
SMALL
GASTEIGER

@<TRIPOS>ATOM
      1 O          -0.5968   -4.3001    2.3955 O.2     1  UNL1       -0.5111
      2 C          -1.3464   -3.3775    2.1389 C.2     1  UNL1        0.6189
      3 C          -1.0286   -2.4052    0.9842 C.3     1  UNL1        0.0004
      4 N           0.1530   -2.7968    0.2602 N.ar    1  UNL1        0.2908
      5 N           0.0220   -3.2893   -1.0108 N.ar    1  UNL1       -0.2261
      6 N           1.1863   -3.5627   -1.4882 N.ar    1  UNL1       -0.3388
      7 C           2.1341   -3.2555   -0.5306 C.ar    1  UNL1        0.3979
      8 C           3.5361   -3.3584   -0.5625 C.ar    1  UNL1       -0.2415
      9 C           4.2325   -2.9544    0.5679 C.ar    1  UNL1       -0.0721
     10 C           3.5570   -2.4605    1.7131 C.ar    1  UNL1       -0.0885
     11 C           2.1727   -2.3561    1.7636 C.ar    1  UNL1       -0.1523
     12 C           1.4736   -2.7619    0.6150 C.ar    1  UNL1       -0.0557
     13 N          -2.5197   -3.1218    2.8430 N.am    1  UNL1       -0.4460
     14 C          -3.3252   -1.9242    2.5690 C.3     1  UNL1        0.0875
     15 C          -2.8134   -0.6340    3.1769 C.ar    1  UNL1        0.1683
     16 C          -3.3656    0.6481    2.8398 C.ar    1  UNL1       -0.2123
     17 C          -2.7707    1.6818    3.5120 C.ar    1  UNL1       -0.1461
     18 S          -1.5169    1.1178    4.5730 S.2     1  UNL1        0.0150
     19 C          -1.8037   -0.5308    4.1032 C.ar    1  UNL1       -0.1868
     20 C          -2.9563   -4.0077    3.8831 C.ar    1  UNL1        0.2603
     21 C          -3.5752   -3.4852    5.0304 C.ar    1  UNL1       -0.0878
     22 C          -4.0474   -4.3368    6.0306 C.ar    1  UNL1       -0.1518
     23 C          -3.9070   -5.7263    5.9154 C.ar    1  UNL1       -0.0758
     24 C          -3.3058   -6.2411    4.7568 C.ar    1  UNL1       -0.0476
     25 C          -2.8276   -5.4027    3.7551 C.ar    1  UNL1       -0.1730
     26 C          -4.4030   -6.7076    6.9418 C.2     1  UNL1        0.5752
     27 O          -4.5972   -7.8849    6.6700 O.2     1  UNL1       -0.5177
     28 N          -4.6367   -6.1966    8.2027 N.am    1  UNL1       -0.4656
     29 C          -4.9858   -7.0767    9.2848 C.3     1  UNL1        0.2189
     30 C          -6.4357   -7.4340    9.4856 C.3     1  UNL1       -0.1297
     31 C          -5.7503   -6.4817   10.4402 C.3     1  UNL1       -0.2825
     32 H          -1.8424   -2.4036    0.2453 H       1  UNL1        0.0114
     33 H          -0.9163   -1.3789    1.3683 H       1  UNL1       -0.0345
     34 H           4.0419   -3.7425   -1.4494 H       1  UNL1        0.1259
     35 H           5.3224   -3.0187    0.5844 H       1  UNL1        0.0921
     36 H           4.1444   -2.1600    2.5836 H       1  UNL1        0.0910
     37 H           1.6607   -1.9932    2.6553 H       1  UNL1        0.1068
     38 H          -3.4300   -1.7965    1.4804 H       1  UNL1        0.0803
     39 H          -4.3420   -2.1300    2.9345 H       1  UNL1        0.0355
     40 H          -4.1745    0.7894    2.1212 H       1  UNL1        0.1134
     41 H          -2.9913    2.7451    3.4426 H       1  UNL1        0.1677
     42 H          -1.2145   -1.3335    4.5416 H       1  UNL1        0.1569
     43 H          -3.6868   -2.4076    5.1548 H       1  UNL1        0.0391
     44 H          -4.5504   -3.8993    6.8954 H       1  UNL1        0.1214
     45 H          -3.2292   -7.3245    4.6555 H       1  UNL1        0.1003
     46 H          -2.3533   -5.8271    2.8737 H       1  UNL1        0.1416
     47 H          -4.1363   -5.3500    8.4525 H       1  UNL1        0.2328
     48 H          -4.2523   -7.8608    9.5030 H       1  UNL1        0.0362
     49 H          -7.1498   -7.0119    8.7763 H       1  UNL1        0.0742
     50 H          -6.6633   -8.4458    9.8267 H       1  UNL1        0.0757
     51 H          -5.5057   -6.8279   11.4465 H       1  UNL1        0.0966
     52 H          -6.0162   -5.4238   10.3718 H       1  UNL1        0.1113
@<TRIPOS>BOND
     1     2     1    2
     2     3     4    1
     3     3     2    1
     4     3    33    1
     5     4    12   ar
     6     5     6   ar
     7     5     4   ar
     8     6     7   ar
     9     7    12   ar
    10     7     8   ar
    11     8     9   ar
    12     9    10   ar
    13     9    35    1
    14    10    36    1
    15    11    37    1
    16    11    10   ar
    17    12    11   ar
    18    13    20    1
    19    13     2   am
    20    14    13    1
    21    14    15    1
    22    15    19   ar
    23    16    15   ar
    24    16    17   ar
    25    17    18   ar
    26    19    42    1
    27    19    18   ar
    28    20    21   ar
    29    21    43    1
    30    21    22   ar
    31    22    44    1
    32    23    22   ar
    33    23    26    1
    34    24    23   ar
    35    25    20   ar
    36    25    24   ar
    37    26    28   am
    38    27    26    2
    39    28    29    1
    40    28    47    1
    41    29    31    1
    42    29    48    1
    43    30    29    1
    44    30    31    1
    45    31    51    1
    46    32     3    1
    47    34     8    1
    48    38    14    1
    49    39    14    1
    50    40    16    1
    51    41    17    1
    52    45    24    1
    53    46    25    1
    54    49    30    1
    55    50    30    1
    56    52    31    1
