@<TRIPOS>MOLECULE
./Mol18.log
 51 55 0 0 0
SMALL
GASTEIGER

@<TRIPOS>ATOM
      1 C          -4.5825   -9.6400    9.0585 C.3     1  UNL1       -0.1506
      2 N          -4.6926   -8.3794    8.3503 N.ar    1  UNL1        0.3309
      3 C          -3.9605   -7.9531    7.2874 C.ar    1  UNL1       -0.2286
      4 C          -4.3624   -6.6484    7.0061 C.ar    1  UNL1       -0.0772
      5 C          -5.3581   -6.3960    7.9914 C.ar    1  UNL1        0.0988
      6 N          -5.5511   -7.4402    8.7954 N.ar    1  UNL1       -0.4564
      7 C          -3.8793   -5.7572    5.9435 C.ar    1  UNL1        0.1113
      8 C          -3.2608   -6.2580    4.7816 C.ar    1  UNL1       -0.0916
      9 C          -2.7956   -5.4173    3.7743 C.ar    1  UNL1       -0.1956
     10 C          -2.9380   -4.0248    3.8925 C.ar    1  UNL1        0.2310
     11 C          -3.5546   -3.5100    5.0431 C.ar    1  UNL1       -0.0685
     12 C          -4.0169   -4.3624    6.0459 C.ar    1  UNL1       -0.2005
     13 N          -2.5118   -3.1374    2.8453 N.am    1  UNL1       -0.4347
     14 C          -3.3387   -1.9580    2.5612 C.3     1  UNL1        0.1419
     15 C          -2.8508   -0.6534    3.1586 C.ar    1  UNL1        0.1551
     16 C          -3.4305    0.6152    2.8162 C.ar    1  UNL1       -0.2094
     17 C          -2.8548    1.6654    3.4797 C.ar    1  UNL1       -0.1545
     18 S          -1.5859    1.1336    4.5394 S.2     1  UNL1        0.0110
     19 C          -1.8398   -0.5233    4.0799 C.ar    1  UNL1       -0.1843
     20 C          -1.3368   -3.3796    2.1463 C.2     1  UNL1        0.6044
     21 O          -0.5738   -4.2925    2.4050 O.2     1  UNL1       -0.5083
     22 C          -1.0290   -2.4088    0.9866 C.3     1  UNL1       -0.0221
     23 N           0.1531   -2.7963    0.2601 N.ar    1  UNL1        0.3014
     24 N           0.0219   -3.2895   -1.0100 N.ar    1  UNL1       -0.2299
     25 N           1.1865   -3.5629   -1.4882 N.ar    1  UNL1       -0.3438
     26 C           2.1342   -3.2553   -0.5310 C.ar    1  UNL1        0.4177
     27 C           3.5363   -3.3583   -0.5625 C.ar    1  UNL1       -0.2711
     28 C           4.2325   -2.9544    0.5679 C.ar    1  UNL1       -0.0333
     29 C           3.5567   -2.4607    1.7131 C.ar    1  UNL1       -0.1251
     30 C           2.1725   -2.3564    1.7635 C.ar    1  UNL1       -0.1308
     31 C           1.4735   -2.7619    0.6146 C.ar    1  UNL1       -0.0708
     32 H          -3.9905   -9.5245    9.9809 H       1  UNL1        0.0836
     33 H          -5.5899   -9.9873    9.3248 H       1  UNL1        0.0837
     34 H          -4.0992  -10.3813    8.4080 H       1  UNL1        0.0686
     35 H          -3.2067   -8.5867    6.8278 H       1  UNL1        0.1525
     36 H          -5.9612   -5.5001    8.1266 H       1  UNL1        0.0868
     37 H          -3.1593   -7.3371    4.6472 H       1  UNL1        0.0826
     38 H          -2.3211   -5.8431    2.8935 H       1  UNL1        0.1474
     39 H          -3.6613   -2.4324    5.1752 H       1  UNL1        0.0467
     40 H          -4.4705   -3.9263    6.9381 H       1  UNL1        0.1131
     41 H          -3.4487   -1.8388    1.4717 H       1  UNL1        0.0617
     42 H          -4.3503   -2.1799    2.9320 H       1  UNL1        0.0123
     43 H          -4.2454    0.7350    2.1003 H       1  UNL1        0.1127
     44 H          -3.0983    2.7232    3.4051 H       1  UNL1        0.1706
     45 H          -1.2334   -1.3109    4.5225 H       1  UNL1        0.1566
     46 H          -1.8441   -2.4142    0.2494 H       1  UNL1        0.0183
     47 H          -0.9218   -1.3805    1.3665 H       1  UNL1       -0.0292
     48 H           4.0422   -3.7426   -1.4494 H       1  UNL1        0.1293
     49 H           5.3225   -3.0188    0.5846 H       1  UNL1        0.0811
     50 H           4.1439   -2.1604    2.5839 H       1  UNL1        0.0987
     51 H           1.6601   -1.9950    2.6554 H       1  UNL1        0.1066
@<TRIPOS>BOND
     1     1    32    1
     2     2     1    1
     3     3    35    1
     4     3     2   ar
     5     4     5   ar
     6     4     3   ar
     7     5     6   ar
     8     6     2   ar
     9     7    12   ar
    10     7     4    1
    11     8     7   ar
    12     9     8   ar
    13     9    10   ar
    14    10    11   ar
    15    11    39    1
    16    11    12   ar
    17    12    40    1
    18    13    20   am
    19    13    10    1
    20    14    13    1
    21    14    15    1
    22    15    19   ar
    23    16    15   ar
    24    16    17   ar
    25    17    18   ar
    26    19    45    1
    27    19    18   ar
    28    20    21    2
    29    22    23    1
    30    22    20    1
    31    22    47    1
    32    23    31   ar
    33    24    25   ar
    34    24    23   ar
    35    25    26   ar
    36    26    31   ar
    37    26    27   ar
    38    27    28   ar
    39    28    29   ar
    40    28    49    1
    41    29    50    1
    42    30    51    1
    43    30    29   ar
    44    31    30   ar
    45    33     1    1
    46    34     1    1
    47    36     5    1
    48    37     8    1
    49    38     9    1
    50    41    14    1
    51    42    14    1
    52    43    16    1
    53    44    17    1
    54    46    22    1
    55    48    27    1
