@<TRIPOS>MOLECULE
./Mol12.log
 49 52 0 0 0
SMALL
GASTEIGER

@<TRIPOS>ATOM
      1 C          -2.2059   -7.8740    8.1075 C.3     1  UNL1       -0.2538
      2 S          -3.4591   -6.6240    8.4537 S.O2    1  UNL1        1.0968
      3 O          -2.7668   -5.3333    8.6806 O.2     1  UNL1       -0.5324
      4 O          -4.4291   -7.1580    9.4377 O.2     1  UNL1       -0.5300
      5 N          -4.3393   -6.6071    6.9493 N.pl3   1  UNL1       -0.7071
      6 C          -3.8855   -5.7024    5.9293 C.ar    1  UNL1        0.2966
      7 C          -3.1834   -6.2221    4.8353 C.ar    1  UNL1       -0.0902
      8 C          -2.7270   -5.3932    3.8122 C.ar    1  UNL1       -0.2213
      9 C          -2.9735   -4.0101    3.8622 C.ar    1  UNL1        0.2147
     10 C          -3.6835   -3.4899    4.9588 C.ar    1  UNL1       -0.0703
     11 C          -4.1297   -4.3256    5.9822 C.ar    1  UNL1       -0.2208
     12 N          -2.5507   -3.1397    2.8036 N.am    1  UNL1       -0.3095
     13 C          -3.4092   -1.9935    2.4576 C.3     1  UNL1       -0.0019
     14 C          -2.9043   -0.6407    2.9210 C.ar    1  UNL1        0.1555
     15 C          -2.1019   -0.4161    4.0908 C.ar    1  UNL1       -0.1190
     16 C          -1.8195    0.9087    4.2986 C.ar    1  UNL1       -0.1935
     17 S          -2.5251    1.9158    3.0742 S.2     1  UNL1        0.0484
     18 C          -3.2004    0.5342    2.2701 C.ar    1  UNL1       -0.2696
     19 C          -1.3431   -3.3568    2.1468 C.2     1  UNL1        0.5802
     20 O          -0.5589   -4.2361    2.4518 O.2     1  UNL1       -0.4930
     21 C          -1.0286   -2.3985    0.9812 C.3     1  UNL1       -0.0399
     22 N           0.1532   -2.7966    0.2603 N.ar    1  UNL1        0.2925
     23 N           0.0218   -3.2892   -1.0106 N.ar    1  UNL1       -0.2163
     24 N           1.1864   -3.5631   -1.4881 N.ar    1  UNL1       -0.3471
     25 C           2.1343   -3.2554   -0.5308 C.ar    1  UNL1        0.4188
     26 C           3.5363   -3.3586   -0.5626 C.ar    1  UNL1       -0.2608
     27 C           4.2324   -2.9542    0.5677 C.ar    1  UNL1       -0.0386
     28 C           3.5565   -2.4606    1.7131 C.ar    1  UNL1       -0.1203
     29 C           2.1725   -2.3566    1.7641 C.ar    1  UNL1       -0.1212
     30 C           1.4740   -2.7615    0.6146 C.ar    1  UNL1       -0.0851
     31 H          -1.6021   -7.5328    7.2566 H       1  UNL1        0.1108
     32 H          -1.5883   -7.9447    9.0130 H       1  UNL1        0.1076
     33 H          -2.7158   -8.8211    7.8956 H       1  UNL1        0.1051
     34 H          -5.3028   -6.4314    7.2481 H       1  UNL1        0.3485
     35 H          -3.0142   -7.2992    4.7796 H       1  UNL1        0.1022
     36 H          -2.1810   -5.8200    2.9754 H       1  UNL1        0.1516
     37 H          -3.8755   -2.4197    5.0391 H       1  UNL1        0.0814
     38 H          -4.6501   -3.8994    6.8411 H       1  UNL1        0.1445
     39 H          -3.5723   -1.9721    1.3693 H       1  UNL1        0.0921
     40 H          -4.3945   -2.2007    2.8965 H       1  UNL1        0.0216
     41 H          -1.7407   -1.2113    4.7427 H       1  UNL1        0.0945
     42 H          -1.2336    1.3526    5.1009 H       1  UNL1        0.1784
     43 H          -3.7813    0.6664    1.3589 H       1  UNL1        0.1771
     44 H          -1.8418   -2.3997    0.2422 H       1  UNL1        0.0060
     45 H          -0.9188   -1.3687    1.3564 H       1  UNL1        0.0085
     46 H           4.0422   -3.7431   -1.4494 H       1  UNL1        0.1269
     47 H           5.3223   -3.0183    0.5842 H       1  UNL1        0.0823
     48 H           4.1438   -2.1608    2.5839 H       1  UNL1        0.0994
     49 H           1.6591   -1.9981    2.6566 H       1  UNL1        0.0996
@<TRIPOS>BOND
     1     1    32    1
     2     2     1    1
     3     2     3    2
     4     4     2    2
     5     5     2    1
     6     6     5    1
     7     6    11   ar
     8     7     6   ar
     9     8     7   ar
    10     8     9   ar
    11     9    10   ar
    12    10    11   ar
    13    10    37    1
    14    11    38    1
    15    12     9    1
    16    12    19   am
    17    13    12    1
    18    13    14    1
    19    14    15   ar
    20    15    41    1
    21    15    16   ar
    22    16    42    1
    23    17    16   ar
    24    18    14   ar
    25    18    17   ar
    26    19    20    2
    27    21    22    1
    28    21    19    1
    29    21    45    1
    30    22    30   ar
    31    23    24   ar
    32    23    22   ar
    33    24    25   ar
    34    25    30   ar
    35    25    26   ar
    36    26    27   ar
    37    27    28   ar
    38    27    47    1
    39    28    48    1
    40    29    49    1
    41    29    28   ar
    42    30    29   ar
    43    31     1    1
    44    33     1    1
    45    34     5    1
    46    35     7    1
    47    36     8    1
    48    39    13    1
    49    40    13    1
    50    43    18    1
    51    44    21    1
    52    46    26    1
