@<TRIPOS>MOLECULE
./Mol14.log
 50 54 0 0 0
SMALL
GASTEIGER

@<TRIPOS>ATOM
      1 O          -0.6419   -4.4267    2.2874 O.2     1  UNL1       -0.5079
      2 C          -1.3419   -3.4468    2.1174 C.2     1  UNL1        0.6293
      3 C          -1.0246   -2.4299    1.0012 C.3     1  UNL1       -0.0315
      4 N           0.1537   -2.7967    0.2601 N.ar    1  UNL1        0.2687
      5 N           0.0216   -3.2895   -1.0099 N.ar    1  UNL1       -0.2149
      6 N           1.1859   -3.5615   -1.4888 N.ar    1  UNL1       -0.3421
      7 C           2.1344   -3.2560   -0.5311 C.ar    1  UNL1        0.4047
      8 C           3.5361   -3.3582   -0.5624 C.ar    1  UNL1       -0.2539
      9 C           4.2324   -2.9549    0.5686 C.ar    1  UNL1       -0.0551
     10 C           3.5569   -2.4600    1.7132 C.ar    1  UNL1       -0.0894
     11 C           2.1724   -2.3552    1.7630 C.ar    1  UNL1       -0.1748
     12 C           1.4740   -2.7636    0.6150 C.ar    1  UNL1       -0.0424
     13 N          -2.4654   -3.1667    2.8855 N.am    1  UNL1       -0.4765
     14 C          -3.2309   -1.9248    2.7131 C.3     1  UNL1        0.1793
     15 C          -2.6283   -0.7079    3.3876 C.ar    1  UNL1        0.0996
     16 C          -3.0419    0.6316    3.0772 C.ar    1  UNL1       -0.1579
     17 C          -2.4002    1.5794    3.8287 C.ar    1  UNL1       -0.1721
     18 S          -1.2723    0.8600    4.9355 S.2     1  UNL1        0.0381
     19 C          -1.6746   -0.7349    4.3759 C.ar    1  UNL1       -0.2379
     20 C          -2.8705   -4.0855    3.9135 C.ar    1  UNL1        0.3119
     21 C          -4.2110   -4.4868    4.0026 C.ar    1  UNL1       -0.1900
     22 C          -4.6281   -5.3523    5.0130 C.ar    1  UNL1       -0.0734
     23 C          -3.7173   -5.8657    5.9521 C.ar    1  UNL1       -0.0492
     24 C          -2.3713   -5.4742    5.8370 C.ar    1  UNL1       -0.0480
     25 C          -1.9499   -4.5978    4.8393 C.ar    1  UNL1       -0.2094
     26 C          -4.1600   -6.7927    7.0233 C.ar    1  UNL1        0.3076
     27 C          -5.4143   -6.6616    7.6435 C.ar    1  UNL1       -0.3735
     28 C          -5.7817   -7.5602    8.6465 C.ar    1  UNL1        0.3929
     29 N          -5.0080   -8.5668    9.0762 N.ar    1  UNL1       -0.5683
     30 C          -3.8123   -8.6904    8.4831 C.ar    1  UNL1        0.3816
     31 C          -3.3475   -7.8482    7.4715 C.ar    1  UNL1       -0.3677
     32 H          -1.8435   -2.3998    0.2684 H       1  UNL1        0.0161
     33 H          -0.9071   -1.4197    1.4237 H       1  UNL1       -0.0030
     34 H           4.0427   -3.7412   -1.4496 H       1  UNL1        0.1279
     35 H           5.3222   -3.0191    0.5851 H       1  UNL1        0.0859
     36 H           4.1444   -2.1566    2.5828 H       1  UNL1        0.0910
     37 H           1.6605   -1.9840    2.6515 H       1  UNL1        0.1153
     38 H          -3.3807   -1.7183    1.6425 H       1  UNL1        0.0651
     39 H          -4.2362   -2.0981    3.1211 H       1  UNL1       -0.0041
     40 H          -3.7878    0.8750    2.3186 H       1  UNL1        0.0993
     41 H          -2.5172    2.6606    3.7918 H       1  UNL1        0.1702
     42 H          -1.1946   -1.6040    4.8193 H       1  UNL1        0.1607
     43 H          -4.9363   -4.1404    3.2639 H       1  UNL1        0.1254
     44 H          -5.6735   -5.6646    5.0445 H       1  UNL1        0.0928
     45 H          -1.6389   -5.8387    6.5598 H       1  UNL1        0.0777
     46 H          -0.8999   -4.3188    4.7721 H       1  UNL1        0.1500
     47 H          -6.0915   -5.8508    7.3681 H       1  UNL1        0.1123
     48 H          -6.7557   -7.4596    9.1378 H       1  UNL1        0.0047
     49 H          -3.1863   -9.5183    8.8327 H       1  UNL1        0.0067
     50 H          -2.3708   -8.0321    7.0200 H       1  UNL1        0.1281
@<TRIPOS>BOND
     1     2     1    2
     2     3     4    1
     3     3     2    1
     4     3    33    1
     5     4    12   ar
     6     5     6   ar
     7     5     4   ar
     8     6     7   ar
     9     7    12   ar
    10     7     8   ar
    11     8     9   ar
    12     9    10   ar
    13     9    35    1
    14    10    36    1
    15    11    37    1
    16    11    10   ar
    17    12    11   ar
    18    13     2   am
    19    13    20    1
    20    14    13    1
    21    14    15    1
    22    15    19   ar
    23    16    15   ar
    24    16    17   ar
    25    17    41    1
    26    17    18   ar
    27    19    42    1
    28    19    18   ar
    29    20    25   ar
    30    21    22   ar
    31    21    20   ar
    32    22    23   ar
    33    23    26    1
    34    23    24   ar
    35    24    45    1
    36    25    24   ar
    37    25    46    1
    38    26    31   ar
    39    27    28   ar
    40    27    26   ar
    41    28    29   ar
    42    29    30   ar
    43    30    49    1
    44    31    30   ar
    45    31    50    1
    46    32     3    1
    47    34     8    1
    48    38    14    1
    49    39    14    1
    50    40    16    1
    51    43    21    1
    52    44    22    1
    53    47    27    1
    54    48    28    1
