@<TRIPOS>MOLECULE
./Mol19.log
 48 52 0 0 0
SMALL
GASTEIGER

@<TRIPOS>ATOM
      1 O          -0.5725   -4.2330    2.4501 O.2     1  UNL1       -0.5133
      2 C          -1.3405   -3.3344    2.1589 C.2     1  UNL1        0.6175
      3 C          -1.0294   -2.3921    0.9775 C.3     1  UNL1       -0.0120
      4 N           0.1529   -2.7966    0.2602 N.ar    1  UNL1        0.3004
      5 N           0.0221   -3.2884   -1.0107 N.ar    1  UNL1       -0.2288
      6 N           1.1865   -3.5632   -1.4881 N.ar    1  UNL1       -0.3464
      7 C           2.1341   -3.2559   -0.5306 C.ar    1  UNL1        0.4245
      8 C           3.5362   -3.3587   -0.5624 C.ar    1  UNL1       -0.2727
      9 C           4.2326   -2.9537    0.5675 C.ar    1  UNL1       -0.0452
     10 C           3.5568   -2.4603    1.7129 C.ar    1  UNL1       -0.1052
     11 C           2.1726   -2.3568    1.7638 C.ar    1  UNL1       -0.1365
     12 C           1.4735   -2.7620    0.6149 C.ar    1  UNL1       -0.0748
     13 N          -2.5245   -3.0826    2.8407 N.am    1  UNL1       -0.4669
     14 C          -3.3563   -1.9174    2.5144 C.3     1  UNL1        0.1237
     15 C          -2.8824   -0.5929    3.0783 C.ar    1  UNL1        0.1642
     16 C          -3.4552    0.6630    2.6817 C.ar    1  UNL1       -0.2202
     17 C          -2.8948    1.7351    3.3224 C.ar    1  UNL1       -0.1409
     18 S          -1.6485    1.2403    4.4262 S.2     1  UNL1        0.0091
     19 C          -1.8918   -0.4312    4.0166 C.ar    1  UNL1       -0.1875
     20 C          -2.9540   -3.9416    3.9094 C.ar    1  UNL1        0.2657
     21 C          -3.5969   -3.3979    5.0327 C.ar    1  UNL1       -0.1311
     22 C          -4.0616   -4.2234    6.0562 C.ar    1  UNL1       -0.1003
     23 C          -3.9033   -5.6186    6.0019 C.ar    1  UNL1        0.0378
     24 C          -3.2549   -6.1485    4.8704 C.ar    1  UNL1       -0.1171
     25 C          -2.7869   -5.3347    3.8420 C.ar    1  UNL1       -0.1689
     26 C          -4.3884   -6.4934    7.0782 C.ar    1  UNL1       -0.0365
     27 C          -5.3966   -6.2419    8.0055 C.ar    1  UNL1       -0.1705
     28 N          -5.4797   -7.3442    8.7945 N.ar    1  UNL1        0.0675
     29 N          -4.6009   -8.3090    8.4631 N.ar    1  UNL1       -0.4423
     30 C          -3.9400   -7.8019    7.4250 C.ar    1  UNL1        0.1257
     31 H          -1.8426   -2.4117    0.2386 H       1  UNL1        0.0121
     32 H          -0.9218   -1.3558    1.3353 H       1  UNL1       -0.0280
     33 H           4.0420   -3.7434   -1.4492 H       1  UNL1        0.1307
     34 H           5.3225   -3.0178    0.5840 H       1  UNL1        0.0840
     35 H           4.1442   -2.1603    2.5837 H       1  UNL1        0.0923
     36 H           1.6600   -1.9974    2.6563 H       1  UNL1        0.1067
     37 H          -3.4549   -1.8311    1.4210 H       1  UNL1        0.0702
     38 H          -4.3706   -2.1348    2.8803 H       1  UNL1        0.0231
     39 H          -4.2538    0.7584    1.9439 H       1  UNL1        0.1149
     40 H          -3.1364    2.7897    3.2072 H       1  UNL1        0.1645
     41 H          -1.2942   -1.2031    4.4971 H       1  UNL1        0.1611
     42 H          -3.7196   -2.3181    5.1286 H       1  UNL1        0.0507
     43 H          -4.5319   -3.7635    6.9281 H       1  UNL1        0.0949
     44 H          -3.1310   -7.2292    4.7773 H       1  UNL1        0.0892
     45 H          -2.2893   -5.7830    2.9856 H       1  UNL1        0.1450
     46 H          -6.0576   -5.3905    8.1419 H       1  UNL1        0.1280
     47 H          -3.1425   -8.3824    6.9651 H       1  UNL1        0.0900
     48 H          -6.1166   -7.5009    9.5649 H       1  UNL1        0.2515
@<TRIPOS>BOND
     1     2     1    2
     2     3     4    1
     3     3     2    1
     4     3    32    1
     5     4    12   ar
     6     5     6   ar
     7     5     4   ar
     8     6     7   ar
     9     7    12   ar
    10     7     8   ar
    11     8     9   ar
    12     9    10   ar
    13     9    34    1
    14    10    35    1
    15    11    36    1
    16    11    10   ar
    17    12    11   ar
    18    13     2   am
    19    13    20    1
    20    14    13    1
    21    14    15    1
    22    15    19   ar
    23    16    15   ar
    24    16    17   ar
    25    17    18   ar
    26    19    41    1
    27    19    18   ar
    28    20    21   ar
    29    21    42    1
    30    21    22   ar
    31    22    43    1
    32    23    22   ar
    33    23    26    1
    34    24    23   ar
    35    25    20   ar
    36    25    24   ar
    37    26    27   ar
    38    26    30   ar
    39    27    28   ar
    40    28    48    1
    41    28    29   ar
    42    30    47    1
    43    30    29   ar
    44    31     3    1
    45    33     8    1
    46    37    14    1
    47    38    14    1
    48    39    16    1
    49    40    17    1
    50    44    24    1
    51    45    25    1
    52    46    27    1
