@<TRIPOS>MOLECULE
./Mol16.log
 54 58 0 0 0
SMALL
GASTEIGER

@<TRIPOS>ATOM
      1 C          -2.9636    5.9372    5.9291 C.3     1  UNL1        0.1484
      2 O          -3.1088    5.1697    4.7306 O.3     1  UNL1       -0.3815
      3 C          -3.5518    5.8213    3.6292 C.ar    1  UNL1        0.6406
      4 N          -3.8583    7.1083    3.7423 N.ar    1  UNL1       -0.5069
      5 C          -4.2936    7.7575    2.6500 C.ar    1  UNL1        0.2178
      6 C          -4.4353    7.1463    1.4105 C.ar    1  UNL1       -0.2930
      7 C          -4.1051    5.7899    1.3084 C.ar    1  UNL1        0.0979
      8 C          -3.6466    5.0747    2.4194 C.ar    1  UNL1       -0.2738
      9 C          -3.2736    3.6411    2.3051 C.ar    1  UNL1        0.1331
     10 C          -2.6090    3.1711    1.1567 C.ar    1  UNL1       -0.1126
     11 C          -2.2835    1.8272    0.9875 C.ar    1  UNL1       -0.1754
     12 C          -2.6150    0.8921    1.9812 C.ar    1  UNL1        0.2244
     13 C          -3.2692    1.3478    3.1371 C.ar    1  UNL1       -0.0741
     14 C          -3.5918    2.6953    3.2943 C.ar    1  UNL1       -0.1832
     15 N          -2.3382   -0.5082    1.8190 N.am    1  UNL1       -0.4284
     16 C          -3.3036   -1.4693    2.3681 C.3     1  UNL1        0.1039
     17 C          -2.9386   -2.0737    3.7088 C.ar    1  UNL1        0.1648
     18 C          -3.6594   -3.1776    4.2784 C.ar    1  UNL1       -0.2002
     19 C          -3.1782   -3.5585    5.5022 C.ar    1  UNL1       -0.1550
     20 S          -1.8287   -2.5806    5.9911 S.2     1  UNL1        0.0165
     21 C          -1.9198   -1.6489    4.5268 C.ar    1  UNL1       -0.1980
     22 C          -1.1753   -0.9388    1.1916 C.2     1  UNL1        0.6226
     23 O          -0.3013   -0.1875    0.8002 O.2     1  UNL1       -0.5102
     24 C          -1.0334   -2.4646    1.0072 C.3     1  UNL1       -0.0632
     25 N           0.1521   -2.8090    0.2650 N.ar    1  UNL1        0.3402
     26 N           0.0215   -3.2974   -1.0072 N.ar    1  UNL1       -0.2330
     27 N           1.1868   -3.5595   -1.4896 N.ar    1  UNL1       -0.3417
     28 C           2.1349   -3.2450   -0.5349 C.ar    1  UNL1        0.4109
     29 C           3.5363   -3.3565   -0.5632 C.ar    1  UNL1       -0.2526
     30 C           4.2318   -2.9653    0.5720 C.ar    1  UNL1       -0.0464
     31 C           3.5564   -2.4678    1.7158 C.ar    1  UNL1       -0.1138
     32 C           2.1732   -2.3465    1.7598 C.ar    1  UNL1       -0.1318
     33 C           1.4744   -2.7489    0.6097 C.ar    1  UNL1       -0.0954
     34 H          -3.9267    6.3641    6.2482 H       1  UNL1        0.0106
     35 H          -2.5880    5.2301    6.6802 H       1  UNL1        0.0417
     36 H          -2.2495    6.7627    5.7872 H       1  UNL1        0.0119
     37 H          -4.5383    8.8155    2.7891 H       1  UNL1        0.0467
     38 H          -4.7999    7.7060    0.5478 H       1  UNL1        0.1187
     39 H          -4.2213    5.2705    0.3549 H       1  UNL1        0.0572
     40 H          -2.3198    3.8769    0.3753 H       1  UNL1        0.0945
     41 H          -1.7563    1.5096    0.0917 H       1  UNL1        0.1432
     42 H          -3.5234    0.6513    3.9373 H       1  UNL1        0.0482
     43 H          -4.0949    3.0154    4.2054 H       1  UNL1        0.1242
     44 H          -4.2680   -0.9464    2.4466 H       1  UNL1        0.0205
     45 H          -3.4721   -2.2777    1.6395 H       1  UNL1        0.0772
     46 H          -4.5032   -3.6671    3.7893 H       1  UNL1        0.1092
     47 H          -3.5337   -4.3612    6.1451 H       1  UNL1        0.1680
     48 H          -1.2210   -0.8327    4.3546 H       1  UNL1        0.1636
     49 H          -1.0288   -2.9694    1.9863 H       1  UNL1       -0.0188
     50 H          -1.8738   -2.8651    0.4234 H       1  UNL1        0.0195
     51 H           4.0424   -3.7384   -1.4511 H       1  UNL1        0.1244
     52 H           5.3214   -3.0353    0.5910 H       1  UNL1        0.0838
     53 H           4.1438   -2.1643    2.5853 H       1  UNL1        0.0970
     54 H           1.6638   -1.9439    2.6356 H       1  UNL1        0.1079
@<TRIPOS>BOND
     1     1    35    1
     2     1    36    1
     3     2     1    1
     4     3     4   ar
     5     3     2    1
     6     5    37    1
     7     5     4   ar
     8     6     5   ar
     9     7     6   ar
    10     7     8   ar
    11     8     3   ar
    12     9    14   ar
    13     9     8    1
    14    10     9   ar
    15    11    12   ar
    16    11    10   ar
    17    12    13   ar
    18    13    42    1
    19    13    14   ar
    20    14    43    1
    21    15    12    1
    22    15    22   am
    23    16    15    1
    24    16    17    1
    25    17    21   ar
    26    18    17   ar
    27    18    19   ar
    28    19    20   ar
    29    21    48    1
    30    21    20   ar
    31    22    23    2
    32    24    25    1
    33    24    22    1
    34    24    49    1
    35    25    33   ar
    36    26    27   ar
    37    26    25   ar
    38    27    28   ar
    39    28    33   ar
    40    28    29   ar
    41    29    30   ar
    42    30    31   ar
    43    30    52    1
    44    31    53    1
    45    32    54    1
    46    32    31   ar
    47    33    32   ar
    48    34     1    1
    49    38     6    1
    50    39     7    1
    51    40    10    1
    52    41    11    1
    53    44    16    1
    54    45    16    1
    55    46    18    1
    56    47    19    1
    57    50    24    1
    58    51    29    1
