@<TRIPOS>MOLECULE
./Mol10.log
 45 48 0 0 0
SMALL
GASTEIGER

@<TRIPOS>ATOM
      1 N          -4.5533    5.4781    3.2225 N.am    1  UNL1       -0.7133
      2 C          -3.6236    5.1018    2.2761 C.2     1  UNL1        0.5833
      3 O          -3.0641    5.9210    1.5607 O.2     1  UNL1       -0.4983
      4 C          -3.3104    3.6344    2.1995 C.ar    1  UNL1       -0.0717
      5 C          -2.5987    3.1747    1.0816 C.ar    1  UNL1       -0.0315
      6 C          -2.2676    1.8316    0.9341 C.ar    1  UNL1       -0.1965
      7 C          -2.6317    0.9030    1.9271 C.ar    1  UNL1        0.2818
      8 C          -3.3227    1.3611    3.0622 C.ar    1  UNL1       -0.1348
      9 C          -3.6587    2.7091    3.1924 C.ar    1  UNL1       -0.1114
     10 N          -2.3499   -0.4953    1.7851 N.am    1  UNL1       -0.4385
     11 C          -3.3117   -1.4559    2.3433 C.3     1  UNL1        0.0941
     12 C          -2.9509   -2.0341    3.6966 C.ar    1  UNL1        0.1749
     13 C          -3.6643   -3.1362    4.2786 C.ar    1  UNL1       -0.2144
     14 C          -3.1866   -3.4936    5.5108 C.ar    1  UNL1       -0.1490
     15 S          -1.8498   -2.4954    5.9927 S.2     1  UNL1        0.0183
     16 C          -1.9414   -1.5864    4.5145 C.ar    1  UNL1       -0.2023
     17 C          -1.1773   -0.9325    1.1732 C.2     1  UNL1        0.5982
     18 O          -0.2994   -0.1839    0.7887 O.2     1  UNL1       -0.4938
     19 C          -1.0340   -2.4591    1.0026 C.3     1  UNL1       -0.0058
     20 N           0.1521   -2.8088    0.2648 N.ar    1  UNL1        0.3171
     21 N           0.0215   -3.2971   -1.0080 N.ar    1  UNL1       -0.2347
     22 N           1.1867   -3.5598   -1.4894 N.ar    1  UNL1       -0.3342
     23 C           2.1347   -3.2452   -0.5344 C.ar    1  UNL1        0.4042
     24 C           3.5361   -3.3565   -0.5632 C.ar    1  UNL1       -0.2631
     25 C           4.2318   -2.9649    0.5718 C.ar    1  UNL1       -0.0264
     26 C           3.5566   -2.4676    1.7157 C.ar    1  UNL1       -0.1212
     27 C           2.1734   -2.3467    1.7602 C.ar    1  UNL1       -0.1366
     28 C           1.4745   -2.7491    0.6101 C.ar    1  UNL1       -0.0833
     29 H          -5.2661    4.8163    3.5062 H       1  UNL1        0.2928
     30 H          -4.8541    6.4453    3.1545 H       1  UNL1        0.3406
     31 H          -2.3139    3.9013    0.3196 H       1  UNL1        0.0898
     32 H          -1.7183    1.5030    0.0560 H       1  UNL1        0.1471
     33 H          -3.5798    0.6718    3.8670 H       1  UNL1        0.0552
     34 H          -4.1644    3.0346    4.1036 H       1  UNL1        0.1138
     35 H          -4.2825   -0.9426    2.4024 H       1  UNL1        0.0248
     36 H          -3.4642   -2.2772    1.6264 H       1  UNL1        0.0818
     37 H          -4.5000   -3.6420    3.7919 H       1  UNL1        0.1139
     38 H          -3.5375   -4.2904    6.1635 H       1  UNL1        0.1692
     39 H          -1.2479   -0.7677    4.3340 H       1  UNL1        0.1670
     40 H          -1.0310   -2.9540    1.9868 H       1  UNL1       -0.0304
     41 H          -1.8735   -2.8651    0.4210 H       1  UNL1        0.0077
     42 H           4.0420   -3.7382   -1.4513 H       1  UNL1        0.1294
     43 H           5.3213   -3.0345    0.5904 H       1  UNL1        0.0783
     44 H           4.1442   -2.1639    2.5850 H       1  UNL1        0.1003
     45 H           1.6642   -1.9448    2.6364 H       1  UNL1        0.1075
@<TRIPOS>BOND
     1     1    30    1
     2     2     1   am
     3     2     3    2
     4     4     9   ar
     5     4     2    1
     6     5     4   ar
     7     6     7   ar
     8     6     5   ar
     9     7     8   ar
    10     8    33    1
    11     8     9   ar
    12     9    34    1
    13    10    17   am
    14    10     7    1
    15    11    10    1
    16    11    12    1
    17    12    16   ar
    18    13    12   ar
    19    13    14   ar
    20    14    15   ar
    21    16    39    1
    22    16    15   ar
    23    17    18    2
    24    19    20    1
    25    19    40    1
    26    19    17    1
    27    20    28   ar
    28    21    22   ar
    29    21    20   ar
    30    22    23   ar
    31    23    28   ar
    32    23    24   ar
    33    24    25   ar
    34    25    26   ar
    35    25    43    1
    36    26    44    1
    37    27    45    1
    38    27    26   ar
    39    28    27   ar
    40    29     1    1
    41    31     5    1
    42    32     6    1
    43    35    11    1
    44    36    11    1
    45    37    13    1
    46    38    14    1
    47    41    19    1
    48    42    24    1
