@<TRIPOS>MOLECULE
./Mol21.log
 48 52 0 0 0
SMALL
GASTEIGER

@<TRIPOS>ATOM
      1 O          -0.5585   -4.1890    2.4855 O.2     1  UNL1       -0.5039
      2 C          -1.3331   -3.3024    2.1754 C.2     1  UNL1        0.5819
      3 C          -1.0295   -2.3836    0.9736 C.3     1  UNL1        0.0030
      4 N           0.1527   -2.7970    0.2602 N.ar    1  UNL1        0.3132
      5 N           0.0222   -3.2878   -1.0107 N.ar    1  UNL1       -0.2326
      6 N           1.1867   -3.5633   -1.4881 N.ar    1  UNL1       -0.3468
      7 C           2.1341   -3.2562   -0.5305 C.ar    1  UNL1        0.4169
      8 C           3.5362   -3.3590   -0.5623 C.ar    1  UNL1       -0.2535
      9 C           4.2326   -2.9535    0.5674 C.ar    1  UNL1       -0.0633
     10 C           3.5568   -2.4601    1.7128 C.ar    1  UNL1       -0.0934
     11 C           2.1727   -2.3569    1.7638 C.ar    1  UNL1       -0.1430
     12 C           1.4733   -2.7620    0.6149 C.ar    1  UNL1       -0.0817
     13 N          -2.5170   -3.0427    2.8528 N.am    1  UNL1       -0.4298
     14 C          -3.3585   -1.8917    2.5033 C.3     1  UNL1        0.1675
     15 C          -2.8916   -0.5506    3.0332 C.ar    1  UNL1        0.1510
     16 C          -3.4785    0.6911    2.6126 C.ar    1  UNL1       -0.2129
     17 C          -2.9230    1.7823    3.2245 C.ar    1  UNL1       -0.1459
     18 S          -1.6641    1.3237    4.3297 S.2     1  UNL1        0.0060
     19 C          -1.8958   -0.3590    3.9598 C.ar    1  UNL1       -0.1820
     20 C          -2.9433   -3.8874    3.9359 C.ar    1  UNL1        0.2610
     21 C          -3.5618   -3.3227    5.0629 C.ar    1  UNL1       -0.1012
     22 C          -4.0298   -4.1329    6.0967 C.ar    1  UNL1       -0.1335
     23 C          -3.8883   -5.5292    6.0474 C.ar    1  UNL1       -0.0878
     24 C          -3.2634   -6.0831    4.9157 C.ar    1  UNL1        0.0801
     25 C          -2.7992   -5.2831    3.8751 C.ar    1  UNL1       -0.2692
     26 C          -4.3678   -6.4042    7.1264 C.ar    1  UNL1        0.3093
     27 C          -4.9829   -6.0649    8.3203 C.ar    1  UNL1       -0.2398
     28 N          -5.2221   -7.2593    8.9640 N.ar    1  UNL1       -0.2256
     29 C          -4.7544   -8.2581    8.1559 C.ar    1  UNL1        0.1893
     30 N          -4.2361   -7.7808    7.0465 N.ar    1  UNL1       -0.4662
     31 H          -1.8443   -2.4210    0.2372 H       1  UNL1        0.0077
     32 H          -0.9254   -1.3396    1.3102 H       1  UNL1       -0.0366
     33 H           4.0419   -3.7442   -1.4489 H       1  UNL1        0.1253
     34 H           5.3226   -3.0176    0.5839 H       1  UNL1        0.0873
     35 H           4.1440   -2.1603    2.5838 H       1  UNL1        0.0894
     36 H           1.6596   -1.9996    2.6568 H       1  UNL1        0.1108
     37 H          -3.4645   -1.8310    1.4086 H       1  UNL1        0.0564
     38 H          -4.3687   -2.1076    2.8812 H       1  UNL1        0.0019
     39 H          -4.2832    0.7624    1.8789 H       1  UNL1        0.1117
     40 H          -3.1751    2.8320    3.0871 H       1  UNL1        0.1660
     41 H          -1.2881   -1.1149    4.4530 H       1  UNL1        0.1569
     42 H          -3.6728   -2.2407    5.1461 H       1  UNL1        0.0454
     43 H          -4.5059   -3.6573    6.9571 H       1  UNL1        0.0905
     44 H          -3.1519   -7.1665    4.8634 H       1  UNL1        0.0350
     45 H          -2.3158   -5.7432    3.0163 H       1  UNL1        0.1615
     46 H          -5.2629   -5.1137    8.7612 H       1  UNL1        0.1563
     47 H          -4.8198   -9.3092    8.4297 H       1  UNL1        0.0759
     48 H          -5.6615   -7.3718    9.8686 H       1  UNL1        0.2914
@<TRIPOS>BOND
     1     2     1    2
     2     3     4    1
     3     3     2    1
     4     3    32    1
     5     4    12   ar
     6     5     6   ar
     7     5     4   ar
     8     6     7   ar
     9     7    12   ar
    10     7     8   ar
    11     8     9   ar
    12     9    10   ar
    13     9    34    1
    14    10    35    1
    15    11    36    1
    16    11    10   ar
    17    12    11   ar
    18    13     2   am
    19    13    20    1
    20    14    13    1
    21    14    15    1
    22    15    19   ar
    23    16    15   ar
    24    16    17   ar
    25    17    18   ar
    26    19    41    1
    27    19    18   ar
    28    20    21   ar
    29    21    42    1
    30    21    22   ar
    31    22    43    1
    32    23    22   ar
    33    23    26    1
    34    24    23   ar
    35    25    20   ar
    36    25    24   ar
    37    26    27   ar
    38    27    28   ar
    39    27    46    1
    40    28    48    1
    41    29    28   ar
    42    30    26   ar
    43    30    29   ar
    44    31     3    1
    45    33     8    1
    46    37    14    1
    47    38    14    1
    48    39    16    1
    49    40    17    1
    50    44    24    1
    51    45    25    1
    52    47    29    1
