@<TRIPOS>MOLECULE
./Mol24.log
 53 57 0 0 0
SMALL
GASTEIGER

@<TRIPOS>ATOM
      1 O          -0.8017   -2.7456    3.3633 O.2     1  UNL1       -0.5373
      2 C          -1.2006   -3.2120    2.3034 C.2     1  UNL1        0.6333
      3 C          -1.0159   -2.3840    1.0157 C.3     1  UNL1       -0.0926
      4 N           0.1546   -2.7973    0.2618 N.ar    1  UNL1        0.2863
      5 N           0.0206   -3.2902   -1.0073 N.ar    1  UNL1       -0.1753
      6 N           1.1856   -3.5660   -1.4883 N.ar    1  UNL1       -0.3634
      7 C           2.1354   -3.2539   -0.5353 C.ar    1  UNL1        0.4137
      8 C           3.5382   -3.3577   -0.5651 C.ar    1  UNL1       -0.2672
      9 C           4.2304   -2.9553    0.5683 C.ar    1  UNL1       -0.0375
     10 C           3.5539   -2.4635    1.7153 C.ar    1  UNL1       -0.1085
     11 C           2.1700   -2.3549    1.7672 C.ar    1  UNL1       -0.1437
     12 C           1.4787   -2.7570    0.6109 C.ar    1  UNL1       -0.0881
     13 N          -1.7707   -4.4607    2.1942 N.am    1  UNL1       -0.5401
     14 C          -2.3236   -4.9996    0.9335 C.3     1  UNL1        0.3477
     15 C          -3.8036   -4.6910    0.7254 C.3     1  UNL1       -0.0279
     16 C          -4.4864   -5.2794   -0.5423 C.3     1  UNL1       -0.0245
     17 C          -5.7598   -5.5342    0.3097 C.3     1  UNL1        0.0284
     18 C          -4.8858   -5.4073    1.5867 C.3     1  UNL1        0.0843
     19 C          -1.8958   -5.2642    3.3816 C.ar    1  UNL1        0.3060
     20 C          -2.5811   -4.7923    4.5083 C.ar    1  UNL1       -0.1782
     21 C          -2.7042   -5.5941    5.6412 C.ar    1  UNL1       -0.0641
     22 C          -2.1532   -6.8885    5.6864 C.ar    1  UNL1        0.0207
     23 C          -1.4615   -7.3459    4.5510 C.ar    1  UNL1       -0.0959
     24 C          -1.3267   -6.5430    3.4182 C.ar    1  UNL1       -0.1608
     25 C          -2.2943   -7.7397    6.8935 C.ar    1  UNL1       -0.1367
     26 C          -3.4768   -7.7695    7.6512 C.ar    1  UNL1        0.0972
     27 C          -3.5501   -8.5910    8.7748 C.ar    1  UNL1       -0.3007
     28 C          -2.4377   -9.3672    9.1109 C.ar    1  UNL1        0.3364
     29 N          -1.2938   -9.3554    8.4128 N.ar    1  UNL1       -0.5342
     30 C          -1.2383   -8.5578    7.3413 C.ar    1  UNL1        0.3232
     31 H          -1.8652   -2.4342    0.3243 H       1  UNL1        0.0297
     32 H          -0.8877   -1.3452    1.3503 H       1  UNL1        0.0582
     33 H           4.0471   -3.7409   -1.4507 H       1  UNL1        0.1335
     34 H           5.3203   -3.0197    0.5866 H       1  UNL1        0.0838
     35 H           4.1418   -2.1674    2.5869 H       1  UNL1        0.0991
     36 H           1.6419   -2.0036    2.6542 H       1  UNL1        0.1299
     37 H          -1.7347   -4.6269    0.0845 H       1  UNL1       -0.0920
     38 H          -2.1775   -6.0899    0.9493 H       1  UNL1        0.0166
     39 H          -3.9598   -3.5985    0.7621 H       1  UNL1        0.0342
     40 H          -4.5710   -4.6296   -1.4262 H       1  UNL1       -0.0062
     41 H          -4.0082   -6.2244   -0.8495 H       1  UNL1        0.0059
     42 H          -6.4796   -4.7052    0.2228 H       1  UNL1       -0.0034
     43 H          -6.2972   -6.4809    0.1518 H       1  UNL1       -0.0105
     44 H          -4.5304   -6.3901    1.9363 H       1  UNL1       -0.0523
     45 H          -5.3010   -4.8630    2.4477 H       1  UNL1       -0.0482
     46 H          -3.0029   -3.7878    4.5019 H       1  UNL1        0.1412
     47 H          -3.2209   -5.1966    6.5172 H       1  UNL1        0.0797
     48 H          -1.0323   -8.3495    4.5448 H       1  UNL1        0.0907
     49 H          -0.7707   -6.9152    2.5555 H       1  UNL1        0.1076
     50 H          -4.3385   -7.1704    7.3479 H       1  UNL1        0.0577
     51 H          -4.4598   -8.6391    9.3769 H       1  UNL1        0.1180
     52 H          -2.4650  -10.0299    9.9823 H       1  UNL1        0.0149
     53 H          -0.2828   -8.5476    6.8062 H       1  UNL1        0.0118
@<TRIPOS>BOND
     1     2     3    1
     2     2     1    2
     3     3    32    1
     4     4     3    1
     5     5     4   ar
     6     6     7   ar
     7     6     5   ar
     8     7    12   ar
     9     8     7   ar
    10     8     9   ar
    11     9    10   ar
    12    10    11   ar
    13    10    35    1
    14    11    36    1
    15    12     4   ar
    16    12    11   ar
    17    13     2   am
    18    14    15    1
    19    14    13    1
    20    15    18    1
    21    15    39    1
    22    16    40    1
    23    16    17    1
    24    16    15    1
    25    17    18    1
    26    17    42    1
    27    18    45    1
    28    19    13    1
    29    19    20   ar
    30    20    46    1
    31    21    20   ar
    32    21    47    1
    33    22    21   ar
    34    23    24   ar
    35    23    22   ar
    36    24    19   ar
    37    25    22    1
    38    25    26   ar
    39    26    50    1
    40    27    26   ar
    41    27    51    1
    42    28    27   ar
    43    29    30   ar
    44    29    28   ar
    45    30    25   ar
    46    31     3    1
    47    33     8    1
    48    34     9    1
    49    37    14    1
    50    38    14    1
    51    41    16    1
    52    43    17    1
    53    44    18    1
    54    48    23    1
    55    49    24    1
    56    52    28    1
    57    53    30    1
