@<TRIPOS>MOLECULE
./Mol25.log
 56 60 0 0 0
SMALL
GASTEIGER

@<TRIPOS>ATOM
      1 O          -0.5318   -4.1205    2.5404 O.2     1  UNL1       -0.5310
      2 C          -1.3254   -3.2630    2.1951 C.2     1  UNL1        0.6035
      3 C          -1.0351   -2.3800    0.9638 C.3     1  UNL1       -0.0276
      4 N           0.1517   -2.7978    0.2605 N.ar    1  UNL1        0.2798
      5 N           0.0227   -3.2870   -1.0125 N.ar    1  UNL1       -0.2182
      6 N           1.1871   -3.5629   -1.4880 N.ar    1  UNL1       -0.3465
      7 C           2.1338   -3.2562   -0.5294 C.ar    1  UNL1        0.4246
      8 C           3.5357   -3.3598   -0.5618 C.ar    1  UNL1       -0.2668
      9 C           4.2331   -2.9534    0.5669 C.ar    1  UNL1       -0.0509
     10 C           3.5574   -2.4594    1.7120 C.ar    1  UNL1       -0.1070
     11 C           2.1732   -2.3570    1.7641 C.ar    1  UNL1       -0.1392
     12 C           1.4726   -2.7622    0.6158 C.ar    1  UNL1       -0.0708
     13 N          -2.5165   -3.0170    2.8581 N.am    1  UNL1       -0.4016
     14 C          -3.4322   -1.9221    2.4885 C.3     1  UNL1        0.0223
     15 C          -3.1632   -0.5830    3.1892 C.3     1  UNL1        0.1444
     16 C          -4.0800    0.5488    2.6553 C.3     1  UNL1        0.0183
     17 C          -4.2766    1.5414    3.8377 C.3     1  UNL1        0.0063
     18 C          -3.4679    0.9516    5.0166 C.3     1  UNL1        0.0289
     19 C          -3.3945   -0.5512    4.7114 C.3     1  UNL1        0.1721
     20 C          -2.8631   -3.8455    3.9816 C.ar    1  UNL1        0.2311
     21 C          -4.1082   -4.4871    4.0171 C.ar    1  UNL1       -0.1434
     22 C          -4.4692   -5.2764    5.1087 C.ar    1  UNL1       -0.1122
     23 C          -3.5925   -5.4649    6.1916 C.ar    1  UNL1        0.0552
     24 C          -2.3377   -4.8302    6.1338 C.ar    1  UNL1       -0.1345
     25 C          -1.9756   -4.0332    5.0498 C.ar    1  UNL1       -0.0845
     26 C          -3.9750   -6.3070    7.3513 C.ar    1  UNL1       -0.1354
     27 C          -5.2806   -6.3145    7.8695 C.ar    1  UNL1        0.0883
     28 C          -5.5794   -7.1269    8.9621 C.ar    1  UNL1       -0.3089
     29 C          -4.5609   -7.9086    9.5137 C.ar    1  UNL1        0.3485
     30 N          -3.3080   -7.9275    9.0388 N.ar    1  UNL1       -0.5386
     31 C          -3.0395   -7.1478    7.9864 C.ar    1  UNL1        0.3222
     32 H          -1.8471   -2.4468    0.2272 H       1  UNL1        0.0229
     33 H          -0.9424   -1.3240    1.2683 H       1  UNL1        0.0093
     34 H           4.0405   -3.7461   -1.4485 H       1  UNL1        0.1302
     35 H           5.3229   -3.0176    0.5829 H       1  UNL1        0.0873
     36 H           4.1450   -2.1594    2.5828 H       1  UNL1        0.0946
     37 H           1.6614   -2.0019    2.6584 H       1  UNL1        0.1113
     38 H          -3.4051   -1.7819    1.3989 H       1  UNL1        0.0465
     39 H          -4.4565   -2.2475    2.7221 H       1  UNL1        0.0471
     40 H          -2.1107   -0.2981    3.0040 H       1  UNL1       -0.0361
     41 H          -3.6496    1.0314    1.7640 H       1  UNL1       -0.0139
     42 H          -5.0512    0.1263    2.3434 H       1  UNL1       -0.0344
     43 H          -3.9483    2.5608    3.5842 H       1  UNL1       -0.0134
     44 H          -5.3439    1.6118    4.1017 H       1  UNL1        0.0018
     45 H          -2.4475    1.3730    5.0267 H       1  UNL1       -0.0178
     46 H          -3.9163    1.1720    5.9974 H       1  UNL1       -0.0193
     47 H          -4.3585   -1.0374    4.9506 H       1  UNL1       -0.0704
     48 H          -2.6155   -1.0757    5.2839 H       1  UNL1       -0.0996
     49 H          -4.7961   -4.3901    3.1750 H       1  UNL1        0.1090
     50 H          -5.4353   -5.7853    5.0986 H       1  UNL1        0.0870
     51 H          -1.6390   -4.9387    6.9655 H       1  UNL1        0.0902
     52 H          -0.9975   -3.5550    5.0303 H       1  UNL1        0.1282
     53 H          -6.0482   -5.6709    7.4337 H       1  UNL1        0.0623
     54 H          -6.5841   -7.1465    9.3895 H       1  UNL1        0.1199
     55 H          -4.7594   -8.5508   10.3784 H       1  UNL1        0.0117
     56 H          -2.0157   -7.2044    7.6019 H       1  UNL1        0.0173
@<TRIPOS>BOND
     1     2     1    2
     2     3     4    1
     3     3     2    1
     4     3    33    1
     5     4    12   ar
     6     5     6   ar
     7     5     4   ar
     8     6     7   ar
     9     7    12   ar
    10     7     8   ar
    11     8     9   ar
    12     9    10   ar
    13     9    35    1
    14    10    36    1
    15    11    37    1
    16    11    10   ar
    17    12    11   ar
    18    13     2   am
    19    13    20    1
    20    14    13    1
    21    14    15    1
    22    15    40    1
    23    15    19    1
    24    16    15    1
    25    16    17    1
    26    17    43    1
    27    17    18    1
    28    18    46    1
    29    18    45    1
    30    19    48    1
    31    19    18    1
    32    20    25   ar
    33    21    22   ar
    34    21    20   ar
    35    22    23   ar
    36    23    26    1
    37    23    24   ar
    38    24    51    1
    39    25    24   ar
    40    25    52    1
    41    26    31   ar
    42    27    28   ar
    43    27    26   ar
    44    28    29   ar
    45    29    55    1
    46    29    30   ar
    47    31    30   ar
    48    31    56    1
    49    32     3    1
    50    34     8    1
    51    38    14    1
    52    39    14    1
    53    41    16    1
    54    42    16    1
    55    44    17    1
    56    47    19    1
    57    49    21    1
    58    50    22    1
    59    53    27    1
    60    54    28    1
