@<TRIPOS>MOLECULE
./Mol22.log
 55 58 0 0 0
SMALL
GASTEIGER

@<TRIPOS>ATOM
      1 C          -4.1081    1.0626    1.7278 C.3     1  UNL1       -0.1818
      2 C          -4.1469    0.5087    3.1598 C.3     1  UNL1        0.2484
      3 C          -3.9074    1.6292    4.1803 C.3     1  UNL1       -0.1538
      4 C          -3.1404   -0.6367    3.3799 C.3     1  UNL1        0.0701
      5 C          -3.4080   -1.8896    2.5344 C.3     1  UNL1        0.0637
      6 N          -2.5100   -3.0108    2.8619 N.am    1  UNL1       -0.4444
      7 C          -1.3247   -3.2643    2.1953 C.2     1  UNL1        0.6199
      8 O          -0.5378   -4.1296    2.5367 O.2     1  UNL1       -0.5293
      9 C          -1.0330   -2.3789    0.9660 C.3     1  UNL1       -0.0579
     10 N           0.1520   -2.7978    0.2606 N.ar    1  UNL1        0.2897
     11 N           0.0226   -3.2867   -1.0122 N.ar    1  UNL1       -0.2101
     12 N           1.1868   -3.5629   -1.4882 N.ar    1  UNL1       -0.3519
     13 C           2.1339   -3.2566   -0.5297 C.ar    1  UNL1        0.4286
     14 C           3.5358   -3.3598   -0.5617 C.ar    1  UNL1       -0.2765
     15 C           4.2329   -2.9532    0.5671 C.ar    1  UNL1       -0.0257
     16 C           3.5574   -2.4590    1.7122 C.ar    1  UNL1       -0.1205
     17 C           2.1731   -2.3572    1.7639 C.ar    1  UNL1       -0.1351
     18 C           1.4728   -2.7625    0.6156 C.ar    1  UNL1       -0.0785
     19 C          -2.8368   -3.8023    4.0172 C.ar    1  UNL1        0.3161
     20 C          -1.9525   -3.9160    5.0979 C.ar    1  UNL1       -0.1580
     21 C          -2.2993   -4.6796    6.2108 C.ar    1  UNL1       -0.0718
     22 C          -3.5354   -5.3475    6.2856 C.ar    1  UNL1        0.0173
     23 C          -4.4119   -5.2278    5.1925 C.ar    1  UNL1       -0.0970
     24 C          -4.0650   -4.4736    4.0719 C.ar    1  UNL1       -0.1920
     25 C          -3.8989   -6.1560    7.4751 C.ar    1  UNL1       -0.1247
     26 C          -2.9604   -6.9561    8.1480 C.ar    1  UNL1        0.0981
     27 C          -3.3633   -7.6947    9.2592 C.ar    1  UNL1       -0.3051
     28 C          -4.6974   -7.6173    9.6680 C.ar    1  UNL1        0.3399
     29 N          -5.6138   -6.8586    9.0512 N.ar    1  UNL1       -0.5268
     30 C          -5.2101   -6.1528    7.9899 C.ar    1  UNL1        0.3016
     31 H          -3.1046    1.4542    1.4833 H       1  UNL1        0.0342
     32 H          -4.3651    0.3018    0.9732 H       1  UNL1        0.0134
     33 H          -4.8237    1.8918    1.6084 H       1  UNL1        0.0469
     34 H          -5.1605    0.1001    3.3398 H       1  UNL1       -0.0508
     35 H          -2.9055    2.0743    4.0495 H       1  UNL1        0.0206
     36 H          -4.6475    2.4374    4.0660 H       1  UNL1        0.0326
     37 H          -3.9742    1.2544    5.2146 H       1  UNL1        0.0302
     38 H          -2.1167   -0.2679    3.1795 H       1  UNL1       -0.0126
     39 H          -3.1590   -0.9319    4.4430 H       1  UNL1       -0.0534
     40 H          -4.4426   -2.2269    2.6987 H       1  UNL1        0.0169
     41 H          -3.3309   -1.6696    1.4627 H       1  UNL1        0.0815
     42 H          -1.8466   -2.4413    0.2309 H       1  UNL1        0.0164
     43 H          -0.9354   -1.3241    1.2741 H       1  UNL1        0.0180
     44 H           4.0411   -3.7456   -1.4484 H       1  UNL1        0.1306
     45 H           5.3228   -3.0168    0.5828 H       1  UNL1        0.0788
     46 H           4.1449   -2.1584    2.5827 H       1  UNL1        0.0951
     47 H           1.6607   -2.0019    2.6579 H       1  UNL1        0.1136
     48 H          -0.9886   -3.4099    5.0634 H       1  UNL1        0.1275
     49 H          -1.6038   -4.7364    7.0508 H       1  UNL1        0.0755
     50 H          -5.3630   -5.7636    5.1993 H       1  UNL1        0.0959
     51 H          -4.7475   -4.4273    3.2210 H       1  UNL1        0.1255
     52 H          -1.9313   -7.0167    7.7869 H       1  UNL1        0.0660
     53 H          -2.6572   -8.3318    9.7957 H       1  UNL1        0.1179
     54 H          -5.0483   -8.1917   10.5317 H       1  UNL1        0.0132
     55 H          -5.9727   -5.5220    7.5207 H       1  UNL1        0.0138
@<TRIPOS>BOND
     1     1    31    1
     2     1     2    1
     3     2     4    1
     4     2     3    1
     5     3    37    1
     6     3    35    1
     7     4    39    1
     8     4    38    1
     9     5     6    1
    10     5     4    1
    11     6     7   am
    12     6    19    1
    13     7     8    2
    14     9     7    1
    15     9    43    1
    16    10     9    1
    17    10    18   ar
    18    11    12   ar
    19    11    10   ar
    20    12    13   ar
    21    13    18   ar
    22    13    14   ar
    23    14    15   ar
    24    15    45    1
    25    15    16   ar
    26    16    46    1
    27    17    47    1
    28    17    16   ar
    29    18    17   ar
    30    19    20   ar
    31    20    21   ar
    32    20    48    1
    33    21    49    1
    34    22    25    1
    35    22    21   ar
    36    23    22   ar
    37    24    23   ar
    38    24    19   ar
    39    25    26   ar
    40    26    27   ar
    41    26    52    1
    42    27    53    1
    43    28    54    1
    44    28    27   ar
    45    29    28   ar
    46    30    29   ar
    47    30    25   ar
    48    32     1    1
    49    33     1    1
    50    34     2    1
    51    36     3    1
    52    40     5    1
    53    41     5    1
    54    42     9    1
    55    44    14    1
    56    50    23    1
    57    51    24    1
    58    55    30    1
