@<TRIPOS>MOLECULE
./Mol29.log
 53 57 0 0 0
SMALL
GASTEIGER

@<TRIPOS>ATOM
      1 F          -1.6845    2.9784    4.7532 F       1  UNL1       -0.1765
      2 C          -2.0679    1.8035    4.2336 C.ar    1  UNL1        0.3194
      3 C          -1.4604    0.6296    4.6621 C.ar    1  UNL1       -0.2666
      4 C          -1.8584   -0.5964    4.1209 C.ar    1  UNL1       -0.0398
      5 C          -2.8641   -0.6538    3.1480 C.ar    1  UNL1        0.0926
      6 C          -3.4646    0.5406    2.7227 C.ar    1  UNL1       -0.1220
      7 C          -3.0738    1.7658    3.2614 C.ar    1  UNL1       -0.0325
      8 CL         -3.8203    3.2529    2.7300 Cl      1  UNL1       -0.0690
      9 C          -3.3503   -1.9667    2.5419 C.3     1  UNL1       -0.0382
     10 N          -2.5325   -3.1506    2.8255 N.am    1  UNL1       -0.3591
     11 C          -1.3502   -3.3912    2.1311 C.2     1  UNL1        0.5980
     12 O          -0.5931   -4.3074    2.3893 O.2     1  UNL1       -0.5054
     13 C          -1.0304   -2.4105    0.9832 C.3     1  UNL1        0.0188
     14 N           0.1529   -2.7963    0.2599 N.ar    1  UNL1        0.2896
     15 N           0.0220   -3.2898   -1.0113 N.ar    1  UNL1       -0.2259
     16 N           1.1864   -3.5629   -1.4880 N.ar    1  UNL1       -0.3331
     17 C           2.1340   -3.2553   -0.5303 C.ar    1  UNL1        0.3923
     18 C           3.5358   -3.3582   -0.5625 C.ar    1  UNL1       -0.2454
     19 C           4.2325   -2.9543    0.5677 C.ar    1  UNL1       -0.0668
     20 C           3.5572   -2.4609    1.7130 C.ar    1  UNL1       -0.0898
     21 C           2.1729   -2.3563    1.7639 C.ar    1  UNL1       -0.1612
     22 C           1.4735   -2.7618    0.6153 C.ar    1  UNL1       -0.0540
     23 C          -2.9750   -4.0466    3.8573 C.ar    1  UNL1        0.2221
     24 C          -3.6349   -3.5412    4.9888 C.ar    1  UNL1       -0.0942
     25 C          -4.1182   -4.4012    5.9752 C.ar    1  UNL1       -0.1320
     26 C          -3.9542   -5.7923    5.8758 C.ar    1  UNL1        0.0557
     27 C          -3.2860   -6.2849    4.7395 C.ar    1  UNL1       -0.0910
     28 C          -2.8055   -5.4369    3.7447 C.ar    1  UNL1       -0.1784
     29 C          -4.4673   -6.7053    6.9263 C.ar    1  UNL1       -0.1428
     30 C          -4.4136   -6.3781    8.2914 C.ar    1  UNL1        0.0932
     31 C          -4.9145   -7.2770    9.2316 C.ar    1  UNL1       -0.3091
     32 C          -5.4535   -8.4855    8.7822 C.ar    1  UNL1        0.3449
     33 N          -5.5235   -8.8239    7.4874 N.ar    1  UNL1       -0.5303
     34 C          -5.0432   -7.9486    6.5984 C.ar    1  UNL1        0.3203
     35 H          -0.6782    0.6916    5.4203 H       1  UNL1        0.1600
     36 H          -1.3772   -1.5134    4.4642 H       1  UNL1        0.0849
     37 H          -4.2474    0.5307    1.9614 H       1  UNL1        0.1027
     38 H          -4.3646   -2.1844    2.9057 H       1  UNL1        0.0592
     39 H          -3.4532   -1.8439    1.4531 H       1  UNL1        0.1185
     40 H          -1.8418   -2.4050    0.2418 H       1  UNL1       -0.0013
     41 H          -0.9205   -1.3857    1.3719 H       1  UNL1       -0.0337
     42 H           4.0416   -3.7422   -1.4496 H       1  UNL1        0.1296
     43 H           5.3224   -3.0186    0.5841 H       1  UNL1        0.0914
     44 H           4.1447   -2.1605    2.5835 H       1  UNL1        0.0937
     45 H           1.6614   -1.9939    2.6560 H       1  UNL1        0.1126
     46 H          -3.7773   -2.4672    5.1142 H       1  UNL1        0.0615
     47 H          -4.6488   -3.9760    6.8295 H       1  UNL1        0.0954
     48 H          -3.1187   -7.3586    4.6348 H       1  UNL1        0.0979
     49 H          -2.2822   -5.8551    2.8887 H       1  UNL1        0.1441
     50 H          -3.9617   -5.4372    8.6136 H       1  UNL1        0.0611
     51 H          -4.8779   -7.0514   10.2993 H       1  UNL1        0.1209
     52 H          -5.8478   -9.2176    9.4948 H       1  UNL1        0.0128
     53 H          -5.1361   -8.2408    5.5470 H       1  UNL1        0.0048
@<TRIPOS>BOND
     1     2     3   ar
     2     2     1    1
     3     3    35    1
     4     4    36    1
     5     4     3   ar
     6     5     4   ar
     7     6     5   ar
     8     6     7   ar
     9     7     2   ar
    10     8     7    1
    11     9    10    1
    12     9     5    1
    13    10    11   am
    14    10    23    1
    15    11    12    2
    16    13    14    1
    17    13    11    1
    18    13    41    1
    19    14    22   ar
    20    15    16   ar
    21    15    14   ar
    22    16    17   ar
    23    17    22   ar
    24    17    18   ar
    25    18    19   ar
    26    19    20   ar
    27    19    43    1
    28    20    44    1
    29    21    45    1
    30    21    20   ar
    31    22    21   ar
    32    23    24   ar
    33    24    46    1
    34    24    25   ar
    35    25    47    1
    36    26    25   ar
    37    26    29    1
    38    27    26   ar
    39    28    23   ar
    40    28    27   ar
    41    29    30   ar
    42    30    31   ar
    43    30    50    1
    44    31    51    1
    45    32    52    1
    46    32    31   ar
    47    33    32   ar
    48    34    33   ar
    49    34    29   ar
    50    37     6    1
    51    38     9    1
    52    39     9    1
    53    40    13    1
    54    42    18    1
    55    48    27    1
    56    49    28    1
    57    53    34    1
