@<TRIPOS>MOLECULE
./Mol23.log
 50 54 0 0 0
SMALL
GASTEIGER

@<TRIPOS>ATOM
      1 O          -0.5293   -4.0688    2.5788 O.2     1  UNL1       -0.5138
      2 C          -1.3280   -3.2290    2.2028 C.2     1  UNL1        0.6013
      3 C          -1.0343   -2.3669    0.9580 C.3     1  UNL1       -0.0514
      4 N           0.1515   -2.7979    0.2606 N.ar    1  UNL1        0.2817
      5 N           0.0228   -3.2865   -1.0128 N.ar    1  UNL1       -0.2245
      6 N           1.1871   -3.5633   -1.4877 N.ar    1  UNL1       -0.3376
      7 C           2.1338   -3.2564   -0.5293 C.ar    1  UNL1        0.4122
      8 C           3.5358   -3.3598   -0.5619 C.ar    1  UNL1       -0.2720
      9 C           4.2331   -2.9531    0.5667 C.ar    1  UNL1       -0.0505
     10 C           3.5575   -2.4592    1.7120 C.ar    1  UNL1       -0.1028
     11 C           2.1732   -2.3574    1.7642 C.ar    1  UNL1       -0.1466
     12 C           1.4726   -2.7621    0.6158 C.ar    1  UNL1       -0.0654
     13 N          -2.5279   -2.9849    2.8461 N.am    1  UNL1       -0.4447
     14 C          -3.4467   -1.8929    2.4769 C.3     1  UNL1        0.1344
     15 C          -3.2079   -0.6015    3.2348 C.3     1  UNL1       -0.0924
     16 C          -4.3390    0.3927    3.3724 C.3     1  UNL1       -0.2067
     17 C          -3.8524   -0.3697    4.5826 C.3     1  UNL1       -0.0867
     18 C          -2.8511   -3.7586    4.0151 C.ar    1  UNL1        0.2889
     19 C          -2.0033   -3.7839    5.1292 C.ar    1  UNL1       -0.1853
     20 C          -2.3480   -4.5283    6.2555 C.ar    1  UNL1       -0.0717
     21 C          -3.5464   -5.2641    6.3091 C.ar    1  UNL1        0.0415
     22 C          -4.3852   -5.2345    5.1807 C.ar    1  UNL1       -0.1141
     23 C          -4.0386   -4.4999    4.0467 C.ar    1  UNL1       -0.1311
     24 C          -3.9103   -6.0488    7.5144 C.ar    1  UNL1       -0.1565
     25 C          -2.9559   -6.7689    8.2518 C.ar    1  UNL1        0.0994
     26 C          -3.3602   -7.4882    9.3751 C.ar    1  UNL1       -0.3101
     27 C          -4.7116   -7.4722    9.7310 C.ar    1  UNL1        0.3573
     28 N          -5.6440   -6.7902    9.0518 N.ar    1  UNL1       -0.5410
     29 C          -5.2388   -6.1018    7.9796 C.ar    1  UNL1        0.3234
     30 H          -1.8462   -2.4393    0.2220 H       1  UNL1        0.0419
     31 H          -0.9368   -1.3071    1.2487 H       1  UNL1        0.0200
     32 H           4.0406   -3.7460   -1.4486 H       1  UNL1        0.1339
     33 H           5.3230   -3.0172    0.5827 H       1  UNL1        0.0886
     34 H           4.1450   -2.1594    2.5826 H       1  UNL1        0.0927
     35 H           1.6606   -2.0051    2.6592 H       1  UNL1        0.1166
     36 H          -3.3791   -1.7161    1.3946 H       1  UNL1        0.0142
     37 H          -4.4743   -2.2400    2.6623 H       1  UNL1        0.0898
     38 H          -2.2082   -0.1757    3.0995 H       1  UNL1        0.0922
     39 H          -4.1013    1.4555    3.2941 H       1  UNL1        0.0956
     40 H          -5.3114    0.1179    2.9544 H       1  UNL1        0.0771
     41 H          -4.4944   -1.1581    4.9822 H       1  UNL1        0.0335
     42 H          -3.2792    0.1705    5.3392 H       1  UNL1        0.0611
     43 H          -1.0717   -3.2194    5.1118 H       1  UNL1        0.1307
     44 H          -1.6840   -4.5156    7.1224 H       1  UNL1        0.0796
     45 H          -5.3031   -5.8255    5.1723 H       1  UNL1        0.0983
     46 H          -4.6880   -4.5215    3.1691 H       1  UNL1        0.0892
     47 H          -1.9115   -6.7838    7.9319 H       1  UNL1        0.0702
     48 H          -2.6413   -8.0639    9.9616 H       1  UNL1        0.1183
     49 H          -5.0635   -8.0335   10.6028 H       1  UNL1        0.0087
     50 H          -6.0165   -5.5334    7.4582 H       1  UNL1        0.0124
@<TRIPOS>BOND
     1     2    13   am
     2     2     1    2
     3     3     2    1
     4     3    31    1
     5     4     3    1
     6     4    12   ar
     7     5     6   ar
     8     5     4   ar
     9     6     7   ar
    10     7     8   ar
    11     7    12   ar
    12     8     9   ar
    13     9    33    1
    14     9    10   ar
    15    10    34    1
    16    11    10   ar
    17    11    35    1
    18    12    11   ar
    19    13    14    1
    20    13    18    1
    21    14    15    1
    22    15    16    1
    23    15    38    1
    24    15    17    1
    25    16    17    1
    26    16    39    1
    27    17    42    1
    28    18    19   ar
    29    19    20   ar
    30    19    43    1
    31    20    44    1
    32    21    24    1
    33    21    20   ar
    34    22    21   ar
    35    23    22   ar
    36    23    18   ar
    37    24    25   ar
    38    25    26   ar
    39    25    47    1
    40    26    48    1
    41    27    49    1
    42    27    26   ar
    43    28    27   ar
    44    29    28   ar
    45    29    24   ar
    46    30     3    1
    47    32     8    1
    48    36    14    1
    49    37    14    1
    50    40    16    1
    51    41    17    1
    52    45    22    1
    53    46    23    1
    54    50    29    1
