@<TRIPOS>MOLECULE
./Mol26.log
 54 58 0 0 0
SMALL
GASTEIGER

@<TRIPOS>ATOM
      1 O          -0.6108   -4.3679    2.3384 O.2     1  UNL1       -0.5235
      2 C          -1.3486   -3.4247    2.1208 C.2     1  UNL1        0.6520
      3 C          -1.0296   -2.4188    0.9920 C.3     1  UNL1        0.0209
      4 N           0.1530   -2.7970    0.2603 N.ar    1  UNL1        0.2314
      5 N           0.0220   -3.2894   -1.0095 N.ar    1  UNL1       -0.2061
      6 N           1.1866   -3.5618   -1.4887 N.ar    1  UNL1       -0.3494
      7 C           2.1342   -3.2555   -0.5311 C.ar    1  UNL1        0.4242
      8 C           3.5361   -3.3583   -0.5622 C.ar    1  UNL1       -0.2789
      9 C           4.2326   -2.9550    0.5683 C.ar    1  UNL1       -0.0354
     10 C           3.5569   -2.4604    1.7131 C.ar    1  UNL1       -0.0990
     11 C           2.1726   -2.3555    1.7627 C.ar    1  UNL1       -0.1896
     12 C           1.4733   -2.7628    0.6147 C.ar    1  UNL1       -0.0354
     13 N          -2.5060   -3.1885    2.8517 N.am    1  UNL1       -0.5586
     14 C          -3.3611   -2.0126    2.6560 C.3     1  UNL1        0.1863
     15 C          -3.2648   -0.9568    3.7790 C.3     1  UNL1        0.2087
     16 C          -3.9748    0.3472    3.3411 C.3     1  UNL1       -0.0855
     17 C          -2.8227    1.2091    2.7531 C.3     1  UNL1        0.2255
     18 O          -1.6174    0.4453    2.9000 O.3     1  UNL1       -0.4052
     19 C          -1.8360   -0.4470    3.9899 C.3     1  UNL1        0.1155
     20 C          -2.8711   -4.1031    3.8990 C.ar    1  UNL1        0.3511
     21 C          -4.1616   -4.6483    3.9304 C.ar    1  UNL1       -0.1923
     22 C          -4.5423   -5.5113    4.9575 C.ar    1  UNL1       -0.0847
     23 C          -3.6439   -5.8684    5.9784 C.ar    1  UNL1        0.0409
     24 C          -2.3468   -5.3251    5.9264 C.ar    1  UNL1       -0.0784
     25 C          -1.9632   -4.4559    4.9071 C.ar    1  UNL1       -0.2008
     26 C          -4.0483   -6.7903    7.0678 C.ar    1  UNL1       -0.1576
     27 C          -5.3321   -6.7553    7.6368 C.ar    1  UNL1        0.1108
     28 C          -5.6540   -7.6485    8.6572 C.ar    1  UNL1       -0.3218
     29 C          -4.6794   -8.5528    9.0877 C.ar    1  UNL1        0.3660
     30 N          -3.4486   -8.6145    8.5615 N.ar    1  UNL1       -0.5462
     31 C          -3.1579   -7.7553    7.5793 C.ar    1  UNL1        0.3188
     32 H          -1.8410   -2.4046    0.2507 H       1  UNL1       -0.0057
     33 H          -0.9201   -1.3979    1.3937 H       1  UNL1        0.0055
     34 H           4.0424   -3.7418   -1.4492 H       1  UNL1        0.1324
     35 H           5.3224   -3.0194    0.5850 H       1  UNL1        0.0812
     36 H           4.1441   -2.1576    2.5831 H       1  UNL1        0.0899
     37 H           1.6606   -1.9873    2.6521 H       1  UNL1        0.1397
     38 H          -3.1084   -1.5466    1.6977 H       1  UNL1        0.0599
     39 H          -4.4102   -2.3354    2.5677 H       1  UNL1       -0.0073
     40 H          -3.6887   -1.3685    4.7072 H       1  UNL1       -0.0954
     41 H          -4.7727    0.1577    2.6059 H       1  UNL1       -0.0146
     42 H          -4.4392    0.8484    4.2029 H       1  UNL1        0.0322
     43 H          -2.9417    1.4351    1.6829 H       1  UNL1        0.0082
     44 H          -2.7276    2.1670    3.2973 H       1  UNL1       -0.0027
     45 H          -1.7506    0.0818    4.9608 H       1  UNL1        0.0214
     46 H          -1.0625   -1.2272    3.9545 H       1  UNL1        0.0099
     47 H          -4.8712   -4.4185    3.1335 H       1  UNL1        0.1249
     48 H          -5.5449   -5.9438    4.9423 H       1  UNL1        0.0817
     49 H          -1.6288   -5.5656    6.7127 H       1  UNL1        0.0833
     50 H          -0.9512   -4.0541    4.8883 H       1  UNL1        0.1401
     51 H          -6.0636   -6.0185    7.2970 H       1  UNL1        0.0558
     52 H          -6.6422   -7.6383    9.1217 H       1  UNL1        0.1210
     53 H          -4.8962   -9.2621    9.8933 H       1  UNL1        0.0079
     54 H          -2.1551   -7.8471    7.1489 H       1  UNL1        0.0269
@<TRIPOS>BOND
     1     2     1    2
     2     3     2    1
     3     3    33    1
     4     4     3    1
     5     4    12   ar
     6     5     6   ar
     7     5     4   ar
     8     6     7   ar
     9     7    12   ar
    10     7     8   ar
    11     8     9   ar
    12     9    35    1
    13     9    10   ar
    14    10    36    1
    15    11    37    1
    16    11    10   ar
    17    12    11   ar
    18    13     2   am
    19    13    20    1
    20    14    13    1
    21    14    15    1
    22    15    40    1
    23    15    19    1
    24    16    15    1
    25    16    17    1
    26    16    42    1
    27    17    18    1
    28    17    44    1
    29    18    19    1
    30    19    46    1
    31    19    45    1
    32    20    25   ar
    33    21    22   ar
    34    21    20   ar
    35    22    23   ar
    36    23    26    1
    37    23    24   ar
    38    24    49    1
    39    25    24   ar
    40    25    50    1
    41    26    31   ar
    42    27    28   ar
    43    27    26   ar
    44    28    29   ar
    45    29    53    1
    46    29    30   ar
    47    31    30   ar
    48    31    54    1
    49    32     3    1
    50    34     8    1
    51    38    14    1
    52    39    14    1
    53    41    16    1
    54    43    17    1
    55    47    21    1
    56    48    22    1
    57    51    27    1
    58    52    28    1
