@<TRIPOS>MOLECULE
./Mol20.log
 51 55 0 0 0
SMALL
GASTEIGER

@<TRIPOS>ATOM
      1 C          -6.0155   -7.2736   10.2290 C.3     1  UNL1       -0.0647
      2 N          -5.2795   -7.1274    8.9870 N.ar    1  UNL1        0.1057
      3 C          -4.5704   -8.0985    8.3323 C.ar    1  UNL1        0.0944
      4 N          -4.0131   -7.6523    7.2284 N.ar    1  UNL1       -0.4743
      5 C          -4.3690   -6.3179    7.1439 C.ar    1  UNL1        0.3246
      6 C          -5.1572   -5.9799    8.2328 C.ar    1  UNL1       -0.3602
      7 C          -3.9231   -5.4792    6.0233 C.ar    1  UNL1       -0.0664
      8 C          -3.1179   -6.0279    5.0089 C.ar    1  UNL1        0.0521
      9 C          -2.6821   -5.2631    3.9302 C.ar    1  UNL1       -0.2391
     10 C          -3.0369   -3.9078    3.8319 C.ar    1  UNL1        0.2199
     11 C          -3.8369   -3.3487    4.8417 C.ar    1  UNL1       -0.0861
     12 C          -4.2748   -4.1238    5.9148 C.ar    1  UNL1       -0.1467
     13 N          -2.6329   -3.1063    2.7073 N.am    1  UNL1       -0.3161
     14 C          -3.6145   -2.1655    2.1419 C.3     1  UNL1        0.0396
     15 C          -3.3263   -0.6986    2.3934 C.ar    1  UNL1        0.1274
     16 C          -2.6602   -0.1791    3.5549 C.ar    1  UNL1       -0.0932
     17 C          -2.5666    1.1879    3.5521 C.ar    1  UNL1       -0.1986
     18 S          -3.2890    1.8778    2.1323 S.2     1  UNL1        0.0373
     19 C          -3.7128    0.3034    1.5353 C.ar    1  UNL1       -0.2593
     20 C          -1.3552   -3.2302    2.1803 C.2     1  UNL1        0.5721
     21 O          -0.5005   -3.9607    2.6507 O.2     1  UNL1       -0.5017
     22 C          -1.0362   -2.3566    0.9522 C.3     1  UNL1       -0.0559
     23 N           0.1515   -2.7978    0.2604 N.ar    1  UNL1        0.3106
     24 N           0.0229   -3.2859   -1.0123 N.ar    1  UNL1       -0.2216
     25 N           1.1877   -3.5638   -1.4878 N.ar    1  UNL1       -0.3546
     26 C           2.1336   -3.2567   -0.5294 C.ar    1  UNL1        0.4315
     27 C           3.5360   -3.3602   -0.5620 C.ar    1  UNL1       -0.2782
     28 C           4.2330   -2.9527    0.5661 C.ar    1  UNL1       -0.0363
     29 C           3.5569   -2.4592    1.7118 C.ar    1  UNL1       -0.1187
     30 C           2.1730   -2.3577    1.7650 C.ar    1  UNL1       -0.1241
     31 C           1.4727   -2.7618    0.6158 C.ar    1  UNL1       -0.0918
     32 H          -5.6114   -6.6063   11.0067 H       1  UNL1        0.0645
     33 H          -7.0826   -7.0432   10.0825 H       1  UNL1        0.0619
     34 H          -5.9262   -8.3114   10.5771 H       1  UNL1        0.0514
     35 H          -4.5005   -9.1147    8.7169 H       1  UNL1        0.1025
     36 H          -5.6326   -5.0519    8.5357 H       1  UNL1        0.1825
     37 H          -2.8423   -7.0805    5.0793 H       1  UNL1        0.0462
     38 H          -2.0561   -5.7175    3.1656 H       1  UNL1        0.1459
     39 H          -4.1219   -2.2962    4.8029 H       1  UNL1        0.0751
     40 H          -4.8956   -3.6528    6.6801 H       1  UNL1        0.0868
     41 H          -3.7193   -2.3399    1.0594 H       1  UNL1        0.0736
     42 H          -4.5847   -2.4369    2.5794 H       1  UNL1        0.0146
     43 H          -2.2553   -0.8038    4.3510 H       1  UNL1        0.0772
     44 H          -2.1100    1.8320    4.3007 H       1  UNL1        0.1741
     45 H          -4.2256    0.2055    0.5798 H       1  UNL1        0.1769
     46 H          -1.8376   -2.3882    0.2032 H       1  UNL1        0.0043
     47 H          -0.9230   -1.3080    1.2723 H       1  UNL1        0.0192
     48 H           4.0408   -3.7470   -1.4484 H       1  UNL1        0.1293
     49 H           5.3231   -3.0166    0.5822 H       1  UNL1        0.0814
     50 H           4.1443   -2.1608    2.5832 H       1  UNL1        0.0936
     51 H           1.6580   -2.0121    2.6607 H       1  UNL1        0.1112
@<TRIPOS>BOND
     1     1    32    1
     2     2     6   ar
     3     2     1    1
     4     3     2   ar
     5     4     3   ar
     6     4     5   ar
     7     5     6   ar
     8     6    36    1
     9     7     5    1
    10     7    12   ar
    11     8     7   ar
    12     9     8   ar
    13     9    10   ar
    14    10    11   ar
    15    11    12   ar
    16    11    39    1
    17    12    40    1
    18    13    10    1
    19    13    20   am
    20    14    13    1
    21    14    15    1
    22    15    16   ar
    23    16    43    1
    24    16    17   ar
    25    17    44    1
    26    18    17   ar
    27    19    15   ar
    28    19    18   ar
    29    20    21    2
    30    22    23    1
    31    22    20    1
    32    22    47    1
    33    23    31   ar
    34    24    25   ar
    35    24    23   ar
    36    25    26   ar
    37    26    31   ar
    38    26    27   ar
    39    27    28   ar
    40    28    49    1
    41    28    29   ar
    42    29    50    1
    43    30    51    1
    44    30    29   ar
    45    31    30   ar
    46    33     1    1
    47    34     1    1
    48    35     3    1
    49    37     8    1
    50    38     9    1
    51    41    14    1
    52    42    14    1
    53    45    19    1
    54    46    22    1
    55    48    27    1
