@<TRIPOS>MOLECULE
./Mol28.log
 53 57 0 0 0
SMALL
GASTEIGER

@<TRIPOS>ATOM
      1 CL         -4.3305   -4.9656    6.0522 Cl      1  UNL1       -0.1134
      2 C          -3.3691   -3.6214    5.4536 C.ar    1  UNL1        0.0645
      3 C          -2.3180   -3.1283    6.2319 C.ar    1  UNL1       -0.0532
      4 C          -1.5646   -2.0634    5.7369 C.ar    1  UNL1       -0.1448
      5 C          -1.8541   -1.4986    4.4896 C.ar    1  UNL1       -0.0526
      6 C          -2.9096   -1.9982    3.7165 C.ar    1  UNL1        0.1207
      7 C          -3.6681   -3.0718    4.2076 C.ar    1  UNL1       -0.1434
      8 C          -3.2874   -1.4097    2.3610 C.3     1  UNL1        0.0503
      9 N          -2.3298   -0.4683    1.7713 N.am    1  UNL1       -0.4077
     10 C          -1.1727   -0.9162    1.1415 C.2     1  UNL1        0.6349
     11 O          -0.3081   -0.1737    0.7164 O.2     1  UNL1       -0.5096
     12 C          -1.0303   -2.4465    1.0013 C.3     1  UNL1       -0.0612
     13 N           0.1524   -2.8096    0.2652 N.ar    1  UNL1        0.3299
     14 N           0.0213   -3.2964   -1.0080 N.ar    1  UNL1       -0.2303
     15 N           1.1863   -3.5596   -1.4894 N.ar    1  UNL1       -0.3386
     16 C           2.1349   -3.2454   -0.5347 C.ar    1  UNL1        0.4103
     17 C           3.5361   -3.3568   -0.5630 C.ar    1  UNL1       -0.2542
     18 C           4.2318   -2.9648    0.5721 C.ar    1  UNL1       -0.0493
     19 C           3.5566   -2.4672    1.7158 C.ar    1  UNL1       -0.1100
     20 C           2.1733   -2.3467    1.7599 C.ar    1  UNL1       -0.1373
     21 C           1.4748   -2.7490    0.6098 C.ar    1  UNL1       -0.0870
     22 C          -2.6094    0.9364    1.8769 C.ar    1  UNL1        0.2398
     23 C          -3.2273    1.4441    3.0308 C.ar    1  UNL1       -0.0958
     24 C          -3.5536    2.7971    3.1266 C.ar    1  UNL1       -0.1057
     25 C          -3.2684    3.6929    2.0834 C.ar    1  UNL1        0.0180
     26 C          -2.6442    3.1714    0.9351 C.ar    1  UNL1       -0.0711
     27 C          -2.3202    1.8213    0.8250 C.ar    1  UNL1       -0.1816
     28 C          -3.6146    5.1316    2.1876 C.ar    1  UNL1       -0.1552
     29 C          -3.4829    5.8465    3.3896 C.ar    1  UNL1        0.1114
     30 C          -3.8273    7.1966    3.4250 C.ar    1  UNL1       -0.3185
     31 C          -4.2920    7.8004    2.2535 C.ar    1  UNL1        0.3530
     32 N          -4.4335    7.1444    1.0934 N.ar    1  UNL1       -0.5397
     33 C          -4.1031    5.8490    1.0779 C.ar    1  UNL1        0.3416
     34 H          -2.0984   -3.5750    7.2017 H       1  UNL1        0.0950
     35 H          -0.7395   -1.6673    6.3326 H       1  UNL1        0.1166
     36 H          -1.2551   -0.6651    4.1193 H       1  UNL1        0.0688
     37 H          -4.4925   -3.4844    3.6222 H       1  UNL1        0.0953
     38 H          -3.4789   -2.2310    1.6535 H       1  UNL1        0.0941
     39 H          -4.2447   -0.8766    2.4511 H       1  UNL1        0.0340
     40 H          -1.0216   -2.9263    1.9927 H       1  UNL1       -0.0212
     41 H          -1.8744   -2.8615    0.4326 H       1  UNL1        0.0198
     42 H           4.0424   -3.7391   -1.4505 H       1  UNL1        0.1282
     43 H           5.3211   -3.0347    0.5908 H       1  UNL1        0.0873
     44 H           4.1442   -2.1639    2.5852 H       1  UNL1        0.0963
     45 H           1.6636   -1.9457    2.6365 H       1  UNL1        0.1069
     46 H          -3.4587    0.7867    3.8698 H       1  UNL1        0.0509
     47 H          -4.0566    3.1544    4.0275 H       1  UNL1        0.0906
     48 H          -2.3865    3.8390    0.1107 H       1  UNL1        0.0940
     49 H          -1.8259    1.4582   -0.0726 H       1  UNL1        0.1407
     50 H          -3.0914    5.3531    4.2822 H       1  UNL1        0.0573
     51 H          -3.7269    7.7780    4.3438 H       1  UNL1        0.1209
     52 H          -4.5635    8.8612    2.2445 H       1  UNL1        0.0103
     53 H          -4.2520    5.3327    0.1236 H       1  UNL1        0.0002
@<TRIPOS>BOND
     1     1     2    1
     2     2     3   ar
     3     3     4   ar
     4     3    34    1
     5     4    35    1
     6     5    36    1
     7     5     4   ar
     8     6     5   ar
     9     7     6   ar
    10     7     2   ar
    11     8     9    1
    12     8     6    1
    13     9    10   am
    14     9    22    1
    15    10    11    2
    16    12    13    1
    17    12    10    1
    18    12    40    1
    19    13    21   ar
    20    14    15   ar
    21    14    13   ar
    22    15    16   ar
    23    16    21   ar
    24    16    17   ar
    25    17    18   ar
    26    18    19   ar
    27    18    43    1
    28    19    44    1
    29    20    45    1
    30    20    19   ar
    31    21    20   ar
    32    22    23   ar
    33    23    24   ar
    34    23    46    1
    35    24    47    1
    36    25    28    1
    37    25    24   ar
    38    26    25   ar
    39    27    26   ar
    40    27    22   ar
    41    28    29   ar
    42    29    30   ar
    43    29    50    1
    44    30    51    1
    45    31    52    1
    46    31    30   ar
    47    32    31   ar
    48    33    32   ar
    49    33    28   ar
    50    37     7    1
    51    38     8    1
    52    39     8    1
    53    41    12    1
    54    42    17    1
    55    48    26    1
    56    49    27    1
    57    53    33    1
