@<TRIPOS>MOLECULE
./Mol27.log
 49 53 0 0 0
SMALL
GASTEIGER

@<TRIPOS>ATOM
      1 O          -0.6133   -4.3852    2.3353 O.2     1  UNL1       -0.4964
      2 C          -1.3438   -3.4378    2.1163 C.2     1  UNL1        0.5031
      3 C          -1.0196   -2.4196    1.0053 C.3     1  UNL1        0.1066
      4 N           0.1546   -2.7965    0.2603 N.ar    1  UNL1        0.2578
      5 N           0.0212   -3.2887   -1.0081 N.ar    1  UNL1       -0.2308
      6 N           1.1858   -3.5618   -1.4891 N.ar    1  UNL1       -0.3397
      7 C           2.1346   -3.2565   -0.5321 C.ar    1  UNL1        0.4118
      8 C           3.5368   -3.3584   -0.5626 C.ar    1  UNL1       -0.2656
      9 C           4.2321   -2.9545    0.5686 C.ar    1  UNL1       -0.0549
     10 C           3.5559   -2.4600    1.7136 C.ar    1  UNL1       -0.1059
     11 C           2.1716   -2.3554    1.7630 C.ar    1  UNL1       -0.1379
     12 C           1.4746   -2.7638    0.6138 C.ar    1  UNL1       -0.0524
     13 N          -2.5086   -3.2090    2.8368 N.am    1  UNL1       -0.2779
     14 C          -3.3183   -1.9877    2.7053 C.3     1  UNL1       -0.1411
     15 C          -2.9041   -0.8895    3.6562 C.ar    1  UNL1        0.3221
     16 C          -3.6662   -0.3802    4.6747 C.ar    1  UNL1       -0.3218
     17 S          -2.7963    0.8676    5.5112 S.2     1  UNL1        0.0457
     18 C          -1.4581    0.6023    4.4189 C.ar    1  UNL1        0.0616
     19 N          -1.6498   -0.3229    3.5231 N.ar    1  UNL1       -0.3417
     20 C          -2.8412   -4.0938    3.9204 C.ar    1  UNL1        0.2903
     21 C          -4.0828   -4.7411    3.9254 C.ar    1  UNL1       -0.2122
     22 C          -4.4412   -5.5754    4.9840 C.ar    1  UNL1       -0.0770
     23 C          -3.5630   -5.7993    6.0595 C.ar    1  UNL1        0.0209
     24 C          -2.3129   -5.1528    6.0330 C.ar    1  UNL1       -0.0769
     25 C          -1.9548   -4.3102    4.9822 C.ar    1  UNL1       -0.1930
     26 C          -3.9405   -6.6929    7.1823 C.ar    1  UNL1       -0.1123
     27 C          -5.2479   -6.7375    7.6939 C.ar    1  UNL1        0.0680
     28 C          -5.5414   -7.5977    8.7505 C.ar    1  UNL1       -0.2845
     29 C          -4.5160   -8.3899    9.2736 C.ar    1  UNL1        0.3391
     30 N          -3.2612   -8.3747    8.8037 N.ar    1  UNL1       -0.5375
     31 C          -2.9977   -7.5487    7.7857 C.ar    1  UNL1        0.3048
     32 H          -1.8373   -2.3647    0.2728 H       1  UNL1       -0.0087
     33 H          -0.8820   -1.4244    1.4557 H       1  UNL1       -0.0551
     34 H           4.0442   -3.7416   -1.4492 H       1  UNL1        0.1288
     35 H           5.3220   -3.0187    0.5858 H       1  UNL1        0.0864
     36 H           4.1435   -2.1583    2.5837 H       1  UNL1        0.0912
     37 H           1.6552   -1.9879    2.6505 H       1  UNL1        0.1040
     38 H          -3.2607   -1.6219    1.6719 H       1  UNL1        0.1273
     39 H          -4.3694   -2.2474    2.8872 H       1  UNL1        0.0652
     40 H          -4.6706   -0.6684    4.9767 H       1  UNL1        0.1995
     41 H          -0.5430    1.1901    4.5044 H       1  UNL1        0.1311
     42 H          -4.7653   -4.6092    3.0827 H       1  UNL1        0.1272
     43 H          -5.4029   -6.0916    4.9531 H       1  UNL1        0.0878
     44 H          -1.6171   -5.2896    6.8629 H       1  UNL1        0.0792
     45 H          -0.9833   -3.8174    4.9821 H       1  UNL1        0.1459
     46 H          -6.0218   -6.0861    7.2811 H       1  UNL1        0.0610
     47 H          -6.5476   -7.6469    9.1720 H       1  UNL1        0.1130
     48 H          -4.7101   -9.0697   10.1099 H       1  UNL1        0.0137
     49 H          -1.9719   -7.5777    7.4035 H       1  UNL1        0.0304
@<TRIPOS>BOND
     1     2     1    2
     2     3     4    1
     3     3     2    1
     4     3    33    1
     5     4    12   ar
     6     5     6   ar
     7     5     4   ar
     8     6     7   ar
     9     7    12   ar
    10     7     8   ar
    11     8     9   ar
    12     9    10   ar
    13     9    35    1
    14    10    36    1
    15    11    37    1
    16    11    10   ar
    17    12    11   ar
    18    13     2   am
    19    13    20    1
    20    14    13    1
    21    14    15    1
    22    15    16   ar
    23    15    19   ar
    24    16    17   ar
    25    17    18   ar
    26    18    41    1
    27    19    18   ar
    28    20    25   ar
    29    21    22   ar
    30    21    20   ar
    31    22    23   ar
    32    23    26    1
    33    23    24   ar
    34    24    44    1
    35    25    24   ar
    36    25    45    1
    37    26    31   ar
    38    27    28   ar
    39    27    26   ar
    40    28    29   ar
    41    29    48    1
    42    29    30   ar
    43    31    30   ar
    44    31    49    1
    45    32     3    1
    46    34     8    1
    47    38    14    1
    48    39    14    1
    49    40    16    1
    50    42    21    1
    51    43    22    1
    52    46    27    1
    53    47    28    1
