@<TRIPOS>MOLECULE
./Mol33.log
 56 60 0 0 0
SMALL
GASTEIGER

@<TRIPOS>ATOM
      1 C          -5.3112   -4.1014   -2.4323 C.3     1  UNL1       -0.1230
      2 C          -5.0299   -2.8630   -1.6156 C.ar    1  UNL1        0.1187
      3 C          -6.0485   -2.2330   -0.8906 C.ar    1  UNL1       -0.1693
      4 C          -5.7628   -1.0817   -0.1520 C.ar    1  UNL1        0.0532
      5 C          -4.4835   -0.5329   -0.1156 C.ar    1  UNL1       -0.0169
      6 C          -3.4562   -1.1576   -0.8393 C.ar    1  UNL1       -0.0600
      7 C          -3.7365   -2.3150   -1.5750 C.ar    1  UNL1       -0.1069
      8 C          -2.0529   -0.5691   -0.8745 C.3     1  UNL1        0.2623
      9 N          -1.5425   -0.0961    0.4293 N.am    1  UNL1       -0.4242
     10 C          -1.0692   -0.9627    1.3955 C.2     1  UNL1        0.5394
     11 O          -0.6611   -0.5927    2.4874 O.2     1  UNL1       -0.5286
     12 C          -1.0209   -2.4638    1.0505 C.3     1  UNL1        0.0839
     13 N           0.1534   -2.8074    0.2665 N.ar    1  UNL1        0.1494
     14 N           0.0205   -3.2940   -1.0057 N.ar    1  UNL1       -0.1050
     15 N           1.1867   -3.5566   -1.4919 N.ar    1  UNL1       -0.3950
     16 C           2.1358   -3.2498   -0.5369 C.ar    1  UNL1        0.4284
     17 C           3.5384   -3.3594   -0.5645 C.ar    1  UNL1       -0.2763
     18 C           4.2297   -2.9639    0.5715 C.ar    1  UNL1       -0.0420
     19 C           3.5537   -2.4633    1.7151 C.ar    1  UNL1       -0.1115
     20 C           2.1705   -2.3446    1.7630 C.ar    1  UNL1       -0.1461
     21 C           1.4785   -2.7566    0.6105 C.ar    1  UNL1       -0.0568
     22 C          -1.5186    1.3179    0.6898 C.ar    1  UNL1        0.2872
     23 C          -0.9157    2.1878   -0.2287 C.ar    1  UNL1       -0.2093
     24 C          -0.9110    3.5639   -0.0027 C.ar    1  UNL1       -0.0686
     25 C          -1.4920    4.1131    1.1538 C.ar    1  UNL1        0.0431
     26 C          -2.0780    3.2260    2.0757 C.ar    1  UNL1       -0.1274
     27 C          -2.0932    1.8505    1.8521 C.ar    1  UNL1       -0.1132
     28 C          -1.4827    5.5768    1.3953 C.ar    1  UNL1       -0.1395
     29 C          -1.6702    6.5051    0.3579 C.ar    1  UNL1        0.0895
     30 C          -1.6505    7.8684    0.6471 C.ar    1  UNL1       -0.3089
     31 C          -1.4481    8.2695    1.9704 C.ar    1  UNL1        0.3562
     32 N          -1.2603    7.4088    2.9802 N.ar    1  UNL1       -0.5406
     33 C          -1.2765    6.1049    2.6851 C.ar    1  UNL1        0.3214
     34 CL         -7.0566   -0.3055    0.7566 Cl      1  UNL1       -0.1204
     35 H          -4.5499   -4.8778   -2.2554 H       1  UNL1        0.0556
     36 H          -6.2972   -4.5275   -2.1966 H       1  UNL1        0.0435
     37 H          -5.2943   -3.8730   -3.5118 H       1  UNL1        0.0481
     38 H          -7.0624   -2.6355   -0.8920 H       1  UNL1        0.1182
     39 H          -4.2943    0.3673    0.4686 H       1  UNL1        0.0226
     40 H          -2.9266   -2.8092   -2.1188 H       1  UNL1        0.0469
     41 H          -1.3597   -1.2991   -1.3124 H       1  UNL1        0.0078
     42 H          -2.0510    0.3018   -1.5438 H       1  UNL1       -0.0008
     43 H          -0.9810   -2.9882    2.0151 H       1  UNL1        0.0361
     44 H          -1.8929   -2.8150    0.4869 H       1  UNL1       -0.0354
     45 H           4.0475   -3.7416   -1.4505 H       1  UNL1        0.1397
     46 H           5.3193   -3.0323    0.5917 H       1  UNL1        0.0879
     47 H           4.1423   -2.1555    2.5821 H       1  UNL1        0.1007
     48 H           1.6473   -1.9344    2.6272 H       1  UNL1        0.1362
     49 H          -0.4248    1.7874   -1.1180 H       1  UNL1        0.1243
     50 H          -0.4129    4.2173   -0.7219 H       1  UNL1        0.0811
     51 H          -2.5576    3.6195    2.9739 H       1  UNL1        0.0937
     52 H          -2.5535    1.1862    2.5820 H       1  UNL1        0.1423
     53 H          -1.8533    6.1593   -0.6620 H       1  UNL1        0.0610
     54 H          -1.8016    8.6115   -0.1386 H       1  UNL1        0.1195
     55 H          -1.4360    9.3325    2.2334 H       1  UNL1        0.0095
     56 H          -1.0938    5.4254    3.5243 H       1  UNL1        0.0181
@<TRIPOS>BOND
     1     1    35    1
     2     1     2    1
     3     1    36    1
     4     2     3   ar
     5     3    38    1
     6     3     4   ar
     7     4    34    1
     8     5     4   ar
     9     5    39    1
    10     6     5   ar
    11     7     2   ar
    12     7     6   ar
    13     8     6    1
    14     8     9    1
    15     9    10   am
    16    10    12    1
    17    10    11    2
    18    12    43    1
    19    13    21   ar
    20    13    12    1
    21    14    13   ar
    22    15    14   ar
    23    15    16   ar
    24    16    21   ar
    25    17    16   ar
    26    17    18   ar
    27    18    19   ar
    28    19    20   ar
    29    19    47    1
    30    20    48    1
    31    21    20   ar
    32    22     9    1
    33    22    27   ar
    34    23    22   ar
    35    24    23   ar
    36    24    25   ar
    37    25    26   ar
    38    26    27   ar
    39    26    51    1
    40    27    52    1
    41    28    25    1
    42    28    33   ar
    43    29    28   ar
    44    30    29   ar
    45    30    31   ar
    46    31    55    1
    47    31    32   ar
    48    32    33   ar
    49    33    56    1
    50    37     1    1
    51    40     7    1
    52    41     8    1
    53    42     8    1
    54    44    12    1
    55    45    17    1
    56    46    18    1
    57    49    23    1
    58    50    24    1
    59    53    29    1
    60    54    30    1
