@<TRIPOS>MOLECULE
./Mol37.log
 51 55 0 0 0
SMALL
GASTEIGER

@<TRIPOS>ATOM
      1 C           1.4763   -2.7531    0.6116 C.ar    1  UNL1       -0.0740
      2 C           2.1352   -3.2459   -0.5353 C.ar    1  UNL1        0.4176
      3 C           2.1729   -2.3422    1.7617 C.ar    1  UNL1       -0.1132
      4 C           3.5372   -3.3575   -0.5642 C.ar    1  UNL1       -0.2622
      5 C           3.5556   -2.4662    1.7151 C.ar    1  UNL1       -0.1141
      6 C           4.2313   -2.9672    0.5720 C.ar    1  UNL1       -0.0569
      7 N           0.1507   -2.8098    0.2651 N.ar    1  UNL1        0.2253
      8 N           1.1877   -3.5562   -1.4911 N.ar    1  UNL1       -0.3593
      9 N           0.0204   -3.2976   -1.0072 N.ar    1  UNL1       -0.1929
     10 C          -1.0405   -2.4908    1.0345 C.3     1  UNL1        0.0335
     11 C          -1.1470   -0.9793    1.2914 C.2     1  UNL1        0.4062
     12 N          -2.0480   -0.2578    0.5519 N.am    1  UNL1       -0.2292
     13 O          -0.4116   -0.4589    2.1274 O.2     1  UNL1       -0.4621
     14 C          -2.0604    1.2134    0.7225 C.3     1  UNL1        0.0135
     15 C          -5.1823    2.8101    2.2230 C.ar    1  UNL1        0.0833
     16 C          -4.9724    2.6568    3.5934 C.ar    1  UNL1       -0.0815
     17 C          -4.2517    2.3483    1.2891 C.ar    1  UNL1       -0.1184
     18 C          -3.7997    2.0282    4.0253 C.ar    1  UNL1       -0.0778
     19 C          -3.0801    1.7170    1.7274 C.ar    1  UNL1        0.1266
     20 C          -2.8580    1.5624    3.1063 C.ar    1  UNL1       -0.1727
     21 CL         -6.6496    3.6019    1.6540 Cl      1  UNL1       -0.1310
     22 C          -5.2140   -1.5958   -0.9215 C.ar    1  UNL1       -0.1425
     23 C          -4.8328   -1.8793   -2.2475 C.ar    1  UNL1        0.1146
     24 C          -4.3012   -1.0846    0.0003 C.ar    1  UNL1       -0.1223
     25 C          -3.4973   -1.6240   -2.6144 C.ar    1  UNL1       -0.1586
     26 C          -2.9776   -0.8312   -0.3848 C.ar    1  UNL1        0.3056
     27 C          -2.5839   -1.0996   -1.7015 C.ar    1  UNL1       -0.2071
     28 C          -5.7905   -2.4238   -3.2194 C.ar    1  UNL1       -0.0785
     29 C          -6.9943   -3.0785   -2.9681 C.ar    1  UNL1       -0.1494
     30 C          -5.7141   -2.4075   -4.6433 C.ar    1  UNL1        0.1472
     31 N          -7.5236   -3.3899   -4.1778 N.ar    1  UNL1        0.0582
     32 N          -6.7646   -2.9893   -5.2159 N.ar    1  UNL1       -0.4334
     33 H           1.6514   -1.9167    2.6179 H       1  UNL1        0.1062
     34 H           4.0437   -3.7384   -1.4523 H       1  UNL1        0.1296
     35 H           4.1444   -2.1580    2.5820 H       1  UNL1        0.0971
     36 H           5.3208   -3.0377    0.5912 H       1  UNL1        0.0892
     37 H          -1.8872   -2.9042    0.4774 H       1  UNL1       -0.0197
     38 H          -0.9750   -2.9752    2.0201 H       1  UNL1        0.0465
     39 H          -1.0494    1.4949    1.0451 H       1  UNL1        0.0509
     40 H          -2.2546    1.6516   -0.2661 H       1  UNL1        0.0314
     41 H          -5.7106    3.0270    4.3054 H       1  UNL1        0.0923
     42 H          -4.4440    2.4845    0.2237 H       1  UNL1        0.0685
     43 H          -3.6202    1.9094    5.0962 H       1  UNL1        0.0975
     44 H          -1.9418    1.0762    3.4453 H       1  UNL1        0.1229
     45 H          -6.2462   -1.7618   -0.6067 H       1  UNL1        0.1074
     46 H          -4.6134   -0.8716    1.0238 H       1  UNL1        0.0628
     47 H          -3.1578   -1.8589   -3.6244 H       1  UNL1        0.1130
     48 H          -1.5493   -0.9267   -2.0009 H       1  UNL1        0.1431
     49 H          -7.4879   -3.3566   -2.0411 H       1  UNL1        0.1295
     50 H          -4.9379   -1.9747   -5.2713 H       1  UNL1        0.0803
     51 H          -8.3904   -3.8790   -4.3605 H       1  UNL1        0.2568
@<TRIPOS>BOND
     1     1     3   ar
     2     1     7   ar
     3     2     1   ar
     4     3    33    1
     5     4     6   ar
     6     4     2   ar
     7     5    35    1
     8     5     3   ar
     9     6     5   ar
    10     7    10    1
    11     8     2   ar
    12     8     9   ar
    13     9     7   ar
    14    10    37    1
    15    10    38    1
    16    11    10    1
    17    12    26    1
    18    12    11   am
    19    13    11    2
    20    14    19    1
    21    14    12    1
    22    15    16   ar
    23    16    18   ar
    24    16    41    1
    25    17    19   ar
    26    17    15   ar
    27    18    43    1
    28    19    20   ar
    29    20    44    1
    30    20    18   ar
    31    21    15    1
    32    22    45    1
    33    23    28    1
    34    23    22   ar
    35    24    22   ar
    36    24    46    1
    37    25    23   ar
    38    26    24   ar
    39    27    25   ar
    40    27    26   ar
    41    28    29   ar
    42    29    49    1
    43    30    32   ar
    44    30    28   ar
    45    31    29   ar
    46    31    51    1
    47    32    31   ar
    48    34     4    1
    49    36     6    1
    50    39    14    1
    51    40    14    1
    52    42    17    1
    53    47    25    1
    54    48    27    1
    55    50    30    1
