@<TRIPOS>MOLECULE
./Mol34.log
 52 56 0 0 0
SMALL
GASTEIGER

@<TRIPOS>ATOM
      1 CL         -4.3153   -4.8998    6.1415 Cl      1  UNL1       -0.0886
      2 C          -3.3868   -3.5794    5.4603 C.ar    1  UNL1       -0.1222
      3 C          -2.3055   -3.0448    6.1727 C.ar    1  UNL1        0.3391
      4 N          -1.5659   -2.0424    5.6957 N.ar    1  UNL1       -0.5481
      5 C          -1.8822   -1.5380    4.4938 C.ar    1  UNL1        0.3687
      6 C          -2.9427   -2.0023    3.7047 C.ar    1  UNL1       -0.1066
      7 C          -3.7119   -3.0587    4.2118 C.ar    1  UNL1        0.0500
      8 C          -3.2990   -1.4066    2.3488 C.3     1  UNL1        0.0430
      9 N          -2.3295   -0.4685    1.7751 N.am    1  UNL1       -0.4265
     10 C          -1.1737   -0.9167    1.1411 C.2     1  UNL1        0.6531
     11 O          -0.3120   -0.1726    0.7150 O.2     1  UNL1       -0.5084
     12 C          -1.0305   -2.4469    0.9996 C.3     1  UNL1       -0.1079
     13 N           0.1524   -2.8094    0.2650 N.ar    1  UNL1        0.3304
     14 N           0.0212   -3.2968   -1.0085 N.ar    1  UNL1       -0.2279
     15 N           1.1861   -3.5598   -1.4893 N.ar    1  UNL1       -0.3369
     16 C           2.1348   -3.2453   -0.5346 C.ar    1  UNL1        0.4023
     17 C           3.5361   -3.3568   -0.5632 C.ar    1  UNL1       -0.2503
     18 C           4.2316   -2.9648    0.5719 C.ar    1  UNL1       -0.0542
     19 C           3.5566   -2.4675    1.7158 C.ar    1  UNL1       -0.1023
     20 C           2.1733   -2.3466    1.7604 C.ar    1  UNL1       -0.1473
     21 C           1.4750   -2.7488    0.6100 C.ar    1  UNL1       -0.0771
     22 C          -2.6053    0.9377    1.8849 C.ar    1  UNL1        0.2665
     23 C          -3.2028    1.4462    3.0485 C.ar    1  UNL1       -0.1267
     24 C          -3.5242    2.8000    3.1497 C.ar    1  UNL1       -0.1047
     25 C          -3.2531    3.6946    2.1017 C.ar    1  UNL1        0.0248
     26 C          -2.6491    3.1717    0.9432 C.ar    1  UNL1       -0.0797
     27 C          -2.3309    1.8207    0.8279 C.ar    1  UNL1       -0.1858
     28 C          -3.5930    5.1344    2.2118 C.ar    1  UNL1       -0.1271
     29 C          -3.4362    5.8489    3.4110 C.ar    1  UNL1        0.0943
     30 C          -3.7759    7.2001    3.4522 C.ar    1  UNL1       -0.2956
     31 C          -4.2611    7.8048    2.2894 C.ar    1  UNL1        0.3308
     32 N          -4.4266    7.1489    1.1325 N.ar    1  UNL1       -0.5237
     33 C          -4.1000    5.8527    1.1111 C.ar    1  UNL1        0.3113
     34 H          -2.0379   -3.4472    7.1536 H       1  UNL1        0.0338
     35 H          -1.2516   -0.7173    4.1403 H       1  UNL1        0.0053
     36 H          -4.5495   -3.4727    3.6459 H       1  UNL1        0.0797
     37 H          -3.4865   -2.2255    1.6370 H       1  UNL1        0.1053
     38 H          -4.2547   -0.8690    2.4307 H       1  UNL1        0.0444
     39 H          -1.0226   -2.9281    1.9906 H       1  UNL1       -0.0005
     40 H          -1.8739   -2.8616    0.4292 H       1  UNL1        0.0319
     41 H           4.0421   -3.7390   -1.4509 H       1  UNL1        0.1281
     42 H           5.3210   -3.0349    0.5906 H       1  UNL1        0.0891
     43 H           4.1439   -2.1647    2.5855 H       1  UNL1        0.0956
     44 H           1.6653   -1.9460    2.6382 H       1  UNL1        0.1183
     45 H          -3.4224    0.7896    3.8915 H       1  UNL1        0.0746
     46 H          -4.0105    3.1591    4.0589 H       1  UNL1        0.0888
     47 H          -2.4029    3.8389    0.1149 H       1  UNL1        0.0971
     48 H          -1.8520    1.4557   -0.0773 H       1  UNL1        0.1429
     49 H          -3.0293    5.3547    4.2962 H       1  UNL1        0.0610
     50 H          -3.6561    7.7816    4.3686 H       1  UNL1        0.1156
     51 H          -4.5296    8.8664    2.2853 H       1  UNL1        0.0161
     52 H          -4.2683    5.3365    0.1600 H       1  UNL1        0.0060
@<TRIPOS>BOND
     1     1     2    1
     2     2     3   ar
     3     3     4   ar
     4     3    34    1
     5     5    35    1
     6     5     4   ar
     7     6     5   ar
     8     7     6   ar
     9     7     2   ar
    10     8     9    1
    11     8     6    1
    12     9    10   am
    13     9    22    1
    14    10    11    2
    15    12    13    1
    16    12    10    1
    17    12    39    1
    18    13    21   ar
    19    14    15   ar
    20    14    13   ar
    21    15    16   ar
    22    16    21   ar
    23    16    17   ar
    24    17    18   ar
    25    18    19   ar
    26    18    42    1
    27    19    43    1
    28    20    44    1
    29    20    19   ar
    30    21    20   ar
    31    22    23   ar
    32    23    24   ar
    33    23    45    1
    34    24    46    1
    35    25    28    1
    36    25    24   ar
    37    26    25   ar
    38    27    26   ar
    39    27    22   ar
    40    28    29   ar
    41    29    30   ar
    42    29    49    1
    43    30    50    1
    44    31    51    1
    45    31    30   ar
    46    32    31   ar
    47    33    32   ar
    48    33    28   ar
    49    36     7    1
    50    37     8    1
    51    38     8    1
    52    40    12    1
    53    41    17    1
    54    47    26    1
    55    48    27    1
    56    52    33    1
