@<TRIPOS>MOLECULE
./Mol35.log
 54 58 0 0 0
SMALL
GASTEIGER

@<TRIPOS>ATOM
      1 CL         -4.3450   -5.1458    5.9490 Cl      1  UNL1       -0.1153
      2 C          -3.3796   -3.7820    5.4011 C.ar    1  UNL1        0.0647
      3 C          -2.3287   -3.3206    6.1985 C.ar    1  UNL1       -0.0592
      4 C          -1.5726   -2.2396    5.7440 C.ar    1  UNL1       -0.1534
      5 C          -1.8592   -1.6285    4.5182 C.ar    1  UNL1       -0.0295
      6 C          -2.9142   -2.0974    3.7252 C.ar    1  UNL1        0.1371
      7 C          -3.6756   -3.1868    4.1756 C.ar    1  UNL1       -0.1444
      8 C          -3.2883   -1.4587    2.3912 C.3     1  UNL1       -0.0725
      9 N          -2.3247   -0.5041    1.8347 N.am    1  UNL1       -0.3362
     10 C          -1.1687   -0.9353    1.1936 C.2     1  UNL1        0.5905
     11 O          -0.2994   -0.1836    0.7950 O.2     1  UNL1       -0.5115
     12 C          -1.0321   -2.4613    1.0069 C.3     1  UNL1        0.0256
     13 N           0.1522   -2.8090    0.2649 N.ar    1  UNL1        0.2981
     14 N           0.0214   -3.2975   -1.0073 N.ar    1  UNL1       -0.2207
     15 N           1.1865   -3.5596   -1.4895 N.ar    1  UNL1       -0.3441
     16 C           2.1348   -3.2449   -0.5349 C.ar    1  UNL1        0.4201
     17 C           3.5362   -3.3564   -0.5631 C.ar    1  UNL1       -0.2728
     18 C           4.2318   -2.9653    0.5722 C.ar    1  UNL1       -0.0365
     19 C           3.5565   -2.4678    1.7160 C.ar    1  UNL1       -0.1227
     20 C           2.1733   -2.3466    1.7598 C.ar    1  UNL1       -0.1248
     21 C           1.4745   -2.7488    0.6096 C.ar    1  UNL1       -0.0843
     22 C          -2.6011    0.8988    1.9792 C.ar    1  UNL1        0.2090
     23 C          -3.2039    1.3778    3.1525 C.ar    1  UNL1       -0.0551
     24 C          -3.5258    2.7279    3.2829 C.ar    1  UNL1       -0.1927
     25 C          -3.2506    3.6537    2.2600 C.ar    1  UNL1        0.0812
     26 C          -2.6605    3.1546    1.0810 C.ar    1  UNL1       -0.1002
     27 C          -2.3356    1.8074    0.9428 C.ar    1  UNL1       -0.1588
     28 C          -3.5589    5.0920    2.4419 C.ar    1  UNL1       -0.1253
     29 C          -3.5088    5.6915    3.6852 C.ar    1  UNL1       -0.0001
     30 C          -3.8322    7.0598    3.9035 C.ar    1  UNL1       -0.2158
     31 C          -4.2038    7.8140    2.8270 C.ar    1  UNL1        0.0234
     32 N          -4.2489    7.2435    1.5906 N.ar    1  UNL1       -0.3184
     33 C          -3.9304    5.9086    1.2754 C.ar    1  UNL1        0.5438
     34 O          -3.9891    5.5514    0.1016 O.2     1  UNL1       -0.5443
     35 H          -2.1113   -3.8036    7.1513 H       1  UNL1        0.0973
     36 H          -0.7475   -1.8673    6.3551 H       1  UNL1        0.1168
     37 H          -1.2586   -0.7830    4.1793 H       1  UNL1        0.0587
     38 H          -4.4996   -3.5760    3.5742 H       1  UNL1        0.0971
     39 H          -3.4875   -2.2540    1.6563 H       1  UNL1        0.1235
     40 H          -4.2410   -0.9214    2.5022 H       1  UNL1        0.0658
     41 H          -1.0300   -2.9711    1.9834 H       1  UNL1       -0.0427
     42 H          -1.8751   -2.8560    0.4222 H       1  UNL1       -0.0044
     43 H           4.0424   -3.7380   -1.4510 H       1  UNL1        0.1327
     44 H           5.3213   -3.0354    0.5909 H       1  UNL1        0.0837
     45 H           4.1441   -2.1644    2.5854 H       1  UNL1        0.0972
     46 H           1.6637   -1.9440    2.6355 H       1  UNL1        0.1048
     47 H          -3.4298    0.7004    3.9773 H       1  UNL1        0.0391
     48 H          -4.0205    3.0576    4.1985 H       1  UNL1        0.1120
     49 H          -2.4689    3.8344    0.2539 H       1  UNL1        0.1235
     50 H          -1.8683    1.4625    0.0233 H       1  UNL1        0.1318
     51 H          -3.1900    5.0951    4.5432 H       1  UNL1        0.0850
     52 H          -3.7782    7.5012    4.8973 H       1  UNL1        0.1144
     53 H          -4.4691    8.8704    2.8860 H       1  UNL1        0.1155
     54 H          -4.5133    7.7956    0.7792 H       1  UNL1        0.2933
@<TRIPOS>BOND
     1     1     2    1
     2     2     3   ar
     3     3     4   ar
     4     3    35    1
     5     4    36    1
     6     5    37    1
     7     5     4   ar
     8     6     5   ar
     9     7     6   ar
    10     7     2   ar
    11     8     9    1
    12     8     6    1
    13     9    10   am
    14     9    22    1
    15    10    11    2
    16    12    13    1
    17    12    10    1
    18    12    41    1
    19    13    21   ar
    20    14    15   ar
    21    14    13   ar
    22    15    16   ar
    23    16    21   ar
    24    16    17   ar
    25    17    18   ar
    26    18    19   ar
    27    18    44    1
    28    19    45    1
    29    20    46    1
    30    20    19   ar
    31    21    20   ar
    32    22    23   ar
    33    23    24   ar
    34    23    47    1
    35    24    48    1
    36    25    24   ar
    37    25    28    1
    38    26    25   ar
    39    27    26   ar
    40    27    22   ar
    41    28    29   ar
    42    29    30   ar
    43    29    51    1
    44    30    52    1
    45    31    53    1
    46    31    30   ar
    47    32    31   ar
    48    33    32   ar
    49    33    28   ar
    50    34    33    2
    51    38     7    1
    52    39     8    1
    53    40     8    1
    54    42    12    1
    55    43    17    1
    56    49    26    1
    57    50    27    1
    58    54    32    1
