@<TRIPOS>MOLECULE
./Mol39.log
 50 54 0 0 0
SMALL
GASTEIGER

@<TRIPOS>ATOM
      1 CL         -4.5195   -5.0719    5.9313 Cl      1  UNL1       -0.1136
      2 C          -3.5117   -3.7405    5.3826 C.ar    1  UNL1        0.0682
      3 C          -2.4591   -3.2982    6.1890 C.ar    1  UNL1       -0.0554
      4 C          -1.6688   -2.2426    5.7334 C.ar    1  UNL1       -0.1468
      5 C          -1.9233   -1.6373    4.4975 C.ar    1  UNL1       -0.0545
      6 C          -2.9806   -2.0859    3.6962 C.ar    1  UNL1        0.1454
      7 C          -3.7763   -3.1501    4.1476 C.ar    1  UNL1       -0.1477
      8 C          -3.3221   -1.4528    2.3507 C.3     1  UNL1       -0.0761
      9 N          -2.3422   -0.5060    1.8097 N.am    1  UNL1       -0.3750
     10 C          -1.1726   -0.9375    1.1912 C.2     1  UNL1        0.6042
     11 O          -0.2990   -0.1805    0.8135 O.2     1  UNL1       -0.4987
     12 C          -1.0332   -2.4616    1.0046 C.3     1  UNL1        0.0111
     13 N           0.1521   -2.8087    0.2648 N.ar    1  UNL1        0.2869
     14 N           0.0214   -3.2976   -1.0081 N.ar    1  UNL1       -0.2216
     15 N           1.1864   -3.5597   -1.4893 N.ar    1  UNL1       -0.3416
     16 C           2.1348   -3.2450   -0.5346 C.ar    1  UNL1        0.4253
     17 C           3.5361   -3.3562   -0.5632 C.ar    1  UNL1       -0.2923
     18 C           4.2317   -2.9652    0.5720 C.ar    1  UNL1       -0.0254
     19 C           3.5566   -2.4678    1.7159 C.ar    1  UNL1       -0.1095
     20 C           2.1735   -2.3466    1.7600 C.ar    1  UNL1       -0.1484
     21 C           1.4746   -2.7490    0.6100 C.ar    1  UNL1       -0.0702
     22 C          -2.6047    0.8955    1.9583 C.ar    1  UNL1        0.0455
     23 C          -3.1883    1.4013    3.1272 C.ar    1  UNL1        0.0884
     24 C          -3.4748    2.7603    3.2149 C.ar    1  UNL1       -0.3596
     25 C          -3.1697    3.6028    2.1327 C.ar    1  UNL1        0.4609
     26 N          -2.6074    3.1145    1.0068 N.ar    1  UNL1       -0.5454
     27 C          -2.3377    1.8132    0.9251 C.ar    1  UNL1        0.2544
     28 C          -3.4423    5.0427    2.1473 C.ar    1  UNL1       -0.1842
     29 C          -4.0248    5.8251    3.1413 C.ar    1  UNL1       -0.1323
     30 N          -4.0493    7.0935    2.6605 N.ar    1  UNL1        0.0668
     31 N          -3.5262    7.2106    1.4213 N.ar    1  UNL1       -0.4606
     32 C          -3.1574    5.9729    1.1063 C.ar    1  UNL1        0.2437
     33 H          -2.2667   -3.7763    7.1494 H       1  UNL1        0.0970
     34 H          -0.8415   -1.8863    6.3510 H       1  UNL1        0.1155
     35 H          -1.2939   -0.8129    4.1584 H       1  UNL1        0.0787
     36 H          -4.6029   -3.5237    3.5397 H       1  UNL1        0.0981
     37 H          -3.5094   -2.2505    1.6154 H       1  UNL1        0.1290
     38 H          -4.2748   -0.9100    2.4377 H       1  UNL1        0.0718
     39 H          -1.0334   -2.9691    1.9825 H       1  UNL1       -0.0322
     40 H          -1.8749   -2.8581    0.4191 H       1  UNL1        0.0037
     41 H           4.0421   -3.7378   -1.4513 H       1  UNL1        0.1402
     42 H           5.3212   -3.0349    0.5905 H       1  UNL1        0.0816
     43 H           4.1444   -2.1641    2.5851 H       1  UNL1        0.0947
     44 H           1.6644   -1.9431    2.6356 H       1  UNL1        0.1108
     45 H          -3.4136    0.7461    3.9704 H       1  UNL1        0.0255
     46 H          -3.9285    3.1592    4.1238 H       1  UNL1        0.1572
     47 H          -1.8785    1.4734   -0.0039 H       1  UNL1        0.0678
     48 H          -4.4145    5.5837    4.1266 H       1  UNL1        0.1111
     49 H          -2.6948    5.7578    0.1471 H       1  UNL1        0.0551
     50 H          -4.4071    7.9182    3.1248 H       1  UNL1        0.2526
@<TRIPOS>BOND
     1     1     2    1
     2     2     3   ar
     3     3     4   ar
     4     3    33    1
     5     4    34    1
     6     5    35    1
     7     5     4   ar
     8     6     5   ar
     9     7     6   ar
    10     7     2   ar
    11     8     9    1
    12     8     6    1
    13     9    10   am
    14     9    22    1
    15    10    11    2
    16    12    13    1
    17    12    10    1
    18    12    39    1
    19    13    21   ar
    20    14    15   ar
    21    14    13   ar
    22    15    16   ar
    23    16    21   ar
    24    16    17   ar
    25    17    18   ar
    26    18    19   ar
    27    18    42    1
    28    19    43    1
    29    20    44    1
    30    20    19   ar
    31    21    20   ar
    32    22    23   ar
    33    23    24   ar
    34    23    45    1
    35    24    46    1
    36    25    28    1
    37    25    24   ar
    38    26    25   ar
    39    27    26   ar
    40    27    22   ar
    41    28    29   ar
    42    29    48    1
    43    30    29   ar
    44    30    50    1
    45    31    30   ar
    46    32    31   ar
    47    32    28   ar
    48    36     7    1
    49    37     8    1
    50    38     8    1
    51    40    12    1
    52    41    17    1
    53    47    27    1
    54    49    32    1
