@<TRIPOS>MOLECULE
./Mol31.log
 53 57 0 0 0
SMALL
GASTEIGER

@<TRIPOS>ATOM
      1 F          -5.3026   -3.9362   -2.3410 F       1  UNL1       -0.1745
      2 C          -5.0358   -2.8226   -1.6317 C.ar    1  UNL1        0.2884
      3 C          -6.0742   -2.2157   -0.9329 C.ar    1  UNL1       -0.1973
      4 C          -5.7695   -1.0682   -0.1976 C.ar    1  UNL1        0.0646
      5 C          -4.4791   -0.5391   -0.1597 C.ar    1  UNL1       -0.0275
      6 C          -3.4534   -1.1725   -0.8771 C.ar    1  UNL1       -0.0633
      7 C          -3.7336   -2.3295   -1.6166 C.ar    1  UNL1       -0.1490
      8 C          -2.0446   -0.5960   -0.9097 C.3     1  UNL1        0.3177
      9 N          -1.5456   -0.1017    0.3881 N.am    1  UNL1       -0.4542
     10 C          -1.0758   -0.9533    1.3710 C.2     1  UNL1        0.5522
     11 O          -0.6766   -0.5651    2.4591 O.2     1  UNL1       -0.5313
     12 C          -1.0205   -2.4593    1.0484 C.3     1  UNL1        0.0736
     13 N           0.1534   -2.8082    0.2670 N.ar    1  UNL1        0.1417
     14 N           0.0206   -3.2936   -1.0063 N.ar    1  UNL1       -0.1059
     15 N           1.1868   -3.5560   -1.4921 N.ar    1  UNL1       -0.3893
     16 C           2.1357   -3.2501   -0.5367 C.ar    1  UNL1        0.4159
     17 C           3.5382   -3.3599   -0.5644 C.ar    1  UNL1       -0.2633
     18 C           4.2296   -2.9640    0.5715 C.ar    1  UNL1       -0.0530
     19 C           3.5538   -2.4628    1.7148 C.ar    1  UNL1       -0.0965
     20 C           2.1706   -2.3441    1.7630 C.ar    1  UNL1       -0.1619
     21 C           1.4785   -2.7570    0.6108 C.ar    1  UNL1       -0.0392
     22 C          -1.5234    1.3171    0.6253 C.ar    1  UNL1        0.2870
     23 C          -0.9138    2.1714   -0.3032 C.ar    1  UNL1       -0.1989
     24 C          -0.9093    3.5509   -0.0992 C.ar    1  UNL1       -0.0856
     25 C          -1.4971    4.1191    1.0447 C.ar    1  UNL1        0.0438
     26 C          -2.0900    3.2473    1.9768 C.ar    1  UNL1       -0.1386
     27 C          -2.1050    1.8683    1.7753 C.ar    1  UNL1       -0.0861
     28 C          -1.4870    5.5863    1.2634 C.ar    1  UNL1       -0.1455
     29 C          -1.6658    6.4987    0.2105 C.ar    1  UNL1        0.0947
     30 C          -1.6456    7.8662    0.4788 C.ar    1  UNL1       -0.2992
     31 C          -1.4515    8.2872    1.7972 C.ar    1  UNL1        0.3438
     32 N          -1.2720    7.4419    2.8214 N.ar    1  UNL1       -0.5406
     33 C          -1.2886    6.1337    2.5464 C.ar    1  UNL1        0.3295
     34 CL         -7.0520   -0.2706    0.6999 Cl      1  UNL1       -0.1043
     35 H          -7.0800   -2.6322   -0.9626 H       1  UNL1        0.1408
     36 H          -4.2817    0.3605    0.4220 H       1  UNL1        0.0205
     37 H          -2.9520   -2.8566   -2.1669 H       1  UNL1        0.0774
     38 H          -1.3544   -1.3403   -1.3273 H       1  UNL1       -0.0060
     39 H          -2.0330    0.2597   -1.5981 H       1  UNL1       -0.0101
     40 H          -0.9762   -2.9691    2.0204 H       1  UNL1        0.0384
     41 H          -1.8919   -2.8242    0.4925 H       1  UNL1       -0.0249
     42 H           4.0472   -3.7424   -1.4503 H       1  UNL1        0.1385
     43 H           5.3191   -3.0326    0.5917 H       1  UNL1        0.0899
     44 H           4.1425   -2.1543    2.5816 H       1  UNL1        0.0974
     45 H           1.6479   -1.9333    2.6271 H       1  UNL1        0.1406
     46 H          -0.4169    1.7566   -1.1825 H       1  UNL1        0.1238
     47 H          -0.4056    4.1921   -0.8253 H       1  UNL1        0.0873
     48 H          -2.5745    3.6556    2.8657 H       1  UNL1        0.0937
     49 H          -2.5695    1.2163    2.5135 H       1  UNL1        0.1351
     50 H          -1.8423    6.1376   -0.8053 H       1  UNL1        0.0603
     51 H          -1.7900    8.5974   -0.3191 H       1  UNL1        0.1161
     52 H          -1.4394    9.3540    2.0440 H       1  UNL1        0.0148
     53 H          -1.1124    5.4670    3.3972 H       1  UNL1        0.0186
@<TRIPOS>BOND
     1     1     2    1
     2     2     3   ar
     3     3    35    1
     4     3     4   ar
     5     4    34    1
     6     5     4   ar
     7     5    36    1
     8     6     5   ar
     9     7     2   ar
    10     7     6   ar
    11     8     6    1
    12     8     9    1
    13     9    10   am
    14    10    11    2
    15    12    10    1
    16    12    40    1
    17    13    21   ar
    18    13    12    1
    19    14    13   ar
    20    15    14   ar
    21    15    16   ar
    22    16    21   ar
    23    17    16   ar
    24    17    18   ar
    25    18    19   ar
    26    19    20   ar
    27    19    44    1
    28    20    45    1
    29    21    20   ar
    30    22     9    1
    31    22    27   ar
    32    23    22   ar
    33    24    23   ar
    34    24    25   ar
    35    25    26   ar
    36    26    27   ar
    37    26    48    1
    38    27    49    1
    39    28    25    1
    40    28    33   ar
    41    29    28   ar
    42    30    29   ar
    43    30    31   ar
    44    31    52    1
    45    31    32   ar
    46    32    33   ar
    47    33    53    1
    48    37     7    1
    49    38     8    1
    50    39     8    1
    51    41    12    1
    52    42    17    1
    53    43    18    1
    54    46    23    1
    55    47    24    1
    56    50    29    1
    57    51    30    1
