@<TRIPOS>MOLECULE
./Mol36.log
 51 55 0 0 0
SMALL
GASTEIGER

@<TRIPOS>ATOM
      1 CL         -4.4533   -5.0834    5.9268 Cl      1  UNL1       -0.1172
      2 C          -3.4682   -3.7333    5.3805 C.ar    1  UNL1        0.0636
      3 C          -2.4282   -3.2698    6.1911 C.ar    1  UNL1       -0.0547
      4 C          -1.6559   -2.2000    5.7373 C.ar    1  UNL1       -0.1578
      5 C          -1.9163   -1.6015    4.4995 C.ar    1  UNL1       -0.0448
      6 C          -2.9613   -2.0713    3.6941 C.ar    1  UNL1        0.1584
      7 C          -3.7383   -3.1502    4.1433 C.ar    1  UNL1       -0.1432
      8 C          -3.3085   -1.4434    2.3479 C.3     1  UNL1       -0.1222
      9 N          -2.3337   -0.4935    1.8032 N.am    1  UNL1       -0.3452
     10 C          -1.1696   -0.9307    1.1815 C.2     1  UNL1        0.5915
     11 O          -0.2935   -0.1827    0.7897 O.2     1  UNL1       -0.5053
     12 C          -1.0322   -2.4577    1.0049 C.3     1  UNL1        0.0273
     13 N           0.1523   -2.8091    0.2650 N.ar    1  UNL1        0.2913
     14 N           0.0213   -3.2970   -1.0075 N.ar    1  UNL1       -0.2276
     15 N           1.1865   -3.5595   -1.4894 N.ar    1  UNL1       -0.3370
     16 C           2.1349   -3.2452   -0.5348 C.ar    1  UNL1        0.4104
     17 C           3.5363   -3.3565   -0.5632 C.ar    1  UNL1       -0.2601
     18 C           4.2317   -2.9651    0.5721 C.ar    1  UNL1       -0.0481
     19 C           3.5563   -2.4676    1.7159 C.ar    1  UNL1       -0.1117
     20 C           2.1733   -2.3465    1.7598 C.ar    1  UNL1       -0.1331
     21 C           1.4747   -2.7491    0.6098 C.ar    1  UNL1       -0.0763
     22 C          -2.6061    0.9109    1.9441 C.ar    1  UNL1        0.2105
     23 C          -3.2320    1.3928    3.1046 C.ar    1  UNL1       -0.0853
     24 C          -3.5448    2.7455    3.2359 C.ar    1  UNL1       -0.1492
     25 C          -3.2471    3.6688    2.2193 C.ar    1  UNL1        0.0740
     26 C          -2.6180    3.1707    1.0626 C.ar    1  UNL1       -0.1380
     27 C          -2.3003    1.8225    0.9204 C.ar    1  UNL1       -0.1368
     28 C          -3.5745    5.0950    2.3513 C.ar    1  UNL1       -0.0509
     29 C          -4.5454    5.6853    3.1566 C.ar    1  UNL1       -0.1595
     30 N          -4.4697    7.0230    2.9354 N.ar    1  UNL1        0.0661
     31 N          -3.5194    7.3670    2.0456 N.ar    1  UNL1       -0.4393
     32 C          -2.9764    6.2058    1.6868 C.ar    1  UNL1        0.1338
     33 H          -2.2315   -3.7426    7.1534 H       1  UNL1        0.0975
     34 H          -0.8389   -1.8266    6.3583 H       1  UNL1        0.1193
     35 H          -1.3036   -0.7642    4.1619 H       1  UNL1        0.0701
     36 H          -4.5547   -3.5403    3.5319 H       1  UNL1        0.0975
     37 H          -3.4923   -2.2443    1.6153 H       1  UNL1        0.1354
     38 H          -4.2631   -0.9050    2.4351 H       1  UNL1        0.0792
     39 H          -1.0293   -2.9597    1.9855 H       1  UNL1       -0.0401
     40 H          -1.8745   -2.8584    0.4236 H       1  UNL1       -0.0007
     41 H           4.0424   -3.7384   -1.4509 H       1  UNL1        0.1285
     42 H           5.3213   -3.0350    0.5909 H       1  UNL1        0.0871
     43 H           4.1440   -2.1639    2.5851 H       1  UNL1        0.0952
     44 H           1.6638   -1.9430    2.6352 H       1  UNL1        0.1078
     45 H          -3.4637    0.7175    3.9293 H       1  UNL1        0.0468
     46 H          -4.0064    3.0894    4.1640 H       1  UNL1        0.1080
     47 H          -2.3893    3.8496    0.2388 H       1  UNL1        0.0955
     48 H          -1.8125    1.4780    0.0118 H       1  UNL1        0.1306
     49 H          -5.2799    5.2591    3.8345 H       1  UNL1        0.1244
     50 H          -2.1539    6.1994    0.9743 H       1  UNL1        0.0838
     51 H          -5.0401    7.7473    3.3523 H       1  UNL1        0.2506
@<TRIPOS>BOND
     1     1     2    1
     2     2     3   ar
     3     3     4   ar
     4     3    33    1
     5     4    34    1
     6     5    35    1
     7     5     4   ar
     8     6     5   ar
     9     7     6   ar
    10     7     2   ar
    11     8     9    1
    12     8     6    1
    13     9    10   am
    14     9    22    1
    15    10    11    2
    16    12    13    1
    17    12    10    1
    18    12    39    1
    19    13    21   ar
    20    14    15   ar
    21    14    13   ar
    22    15    16   ar
    23    16    21   ar
    24    16    17   ar
    25    17    18   ar
    26    18    19   ar
    27    18    42    1
    28    19    43    1
    29    20    44    1
    30    20    19   ar
    31    21    20   ar
    32    22    23   ar
    33    23    24   ar
    34    23    45    1
    35    24    46    1
    36    25    28    1
    37    25    24   ar
    38    26    25   ar
    39    27    26   ar
    40    27    22   ar
    41    28    29   ar
    42    28    32   ar
    43    29    30   ar
    44    30    31   ar
    45    30    51    1
    46    32    50    1
    47    32    31   ar
    48    36     7    1
    49    37     8    1
    50    38     8    1
    51    40    12    1
    52    41    17    1
    53    47    26    1
    54    48    27    1
    55    49    29    1
