@<TRIPOS>MOLECULE
./Mol38.log
 55 59 0 0 0
SMALL
GASTEIGER

@<TRIPOS>ATOM
      1 C          -4.7007   -6.7934    2.0207 C.3     1  UNL1        0.1642
      2 O          -4.0472   -5.5555    2.2686 O.3     1  UNL1       -0.3136
      3 C          -3.7301   -5.2314    3.5555 C.ar    1  UNL1        0.3344
      4 C          -4.0694   -6.0018    4.6724 C.ar    1  UNL1       -0.3238
      5 C          -3.6953   -5.6025    5.9702 C.ar    1  UNL1        0.1183
      6 C          -2.9740   -4.4070    6.1222 C.ar    1  UNL1       -0.1827
      7 C          -2.6554   -3.6282    5.0103 C.ar    1  UNL1       -0.1051
      8 C          -3.0333   -4.0151    3.7254 C.ar    1  UNL1        0.0621
      9 N          -2.6996   -3.2183    2.5765 N.am    1  UNL1       -0.2728
     10 C          -3.7999   -2.6512    1.7810 C.3     1  UNL1        0.0834
     11 C          -3.8875   -1.1317    1.7826 C.ar    1  UNL1        0.1270
     12 C          -4.2625   -0.4512    0.6162 C.ar    1  UNL1       -0.1896
     13 C          -4.4012    0.9397    0.6176 C.ar    1  UNL1       -0.0604
     14 C          -4.1627    1.6760    1.7798 C.ar    1  UNL1       -0.0886
     15 C          -3.7859    0.9912    2.9376 C.ar    1  UNL1        0.0719
     16 C          -3.6472   -0.3966    2.9525 C.ar    1  UNL1       -0.0896
     17 CL         -3.4786    1.8990    4.4143 Cl      1  UNL1       -0.1238
     18 C          -1.3733   -3.1864    2.1800 C.2     1  UNL1        0.5215
     19 O          -0.4863   -3.7470    2.8003 O.2     1  UNL1       -0.5249
     20 C          -1.0419   -2.3415    0.9384 C.3     1  UNL1        0.0495
     21 N           0.1505   -2.7980    0.2604 N.ar    1  UNL1        0.2411
     22 N           0.0231   -3.2844   -1.0136 N.ar    1  UNL1       -0.2075
     23 N           1.1882   -3.5642   -1.4876 N.ar    1  UNL1       -0.3561
     24 C           2.1334   -3.2576   -0.5286 C.ar    1  UNL1        0.4116
     25 C           3.5360   -3.3609   -0.5618 C.ar    1  UNL1       -0.2659
     26 C           4.2333   -2.9518    0.5653 C.ar    1  UNL1       -0.0628
     27 C           3.5571   -2.4583    1.7111 C.ar    1  UNL1       -0.0899
     28 C           2.1733   -2.3585    1.7660 C.ar    1  UNL1       -0.1713
     29 C           1.4724   -2.7620    0.6165 C.ar    1  UNL1       -0.0296
     30 C          -4.0572   -6.4303    7.1301 C.ar    1  UNL1       -0.0330
     31 C          -4.3556   -7.8238    7.1704 C.ar    1  UNL1        0.1355
     32 N          -4.6409   -8.2490    8.3989 N.ar    1  UNL1       -0.4440
     33 N          -4.5359   -7.1430    9.1601 N.ar    1  UNL1        0.0659
     34 C          -4.1895   -6.0338    8.4585 C.ar    1  UNL1       -0.1706
     35 H          -4.8137   -6.8598    0.9311 H       1  UNL1        0.0338
     36 H          -4.0982   -7.6465    2.3772 H       1  UNL1        0.0194
     37 H          -5.6982   -6.8297    2.4935 H       1  UNL1        0.0136
     38 H          -4.6399   -6.9200    4.5449 H       1  UNL1        0.1136
     39 H          -2.6386   -4.0920    7.1115 H       1  UNL1        0.1066
     40 H          -2.0796   -2.7096    5.1327 H       1  UNL1        0.1390
     41 H          -3.7601   -3.0219    0.7450 H       1  UNL1        0.0479
     42 H          -4.7261   -3.0616    2.2052 H       1  UNL1        0.0026
     43 H          -4.4451   -1.0133   -0.3033 H       1  UNL1        0.1138
     44 H          -4.6901    1.4596   -0.2984 H       1  UNL1        0.0943
     45 H          -4.2608    2.7616    1.7920 H       1  UNL1        0.0977
     46 H          -3.3537   -0.9009    3.8728 H       1  UNL1        0.0497
     47 H          -1.8314   -2.3590    0.1795 H       1  UNL1       -0.0198
     48 H          -0.9155   -1.2944    1.2624 H       1  UNL1       -0.0059
     49 H           4.0403   -3.7484   -1.4484 H       1  UNL1        0.1293
     50 H           5.3233   -3.0152    0.5810 H       1  UNL1        0.0890
     51 H           4.1448   -2.1600    2.5824 H       1  UNL1        0.0861
     52 H           1.6555   -2.0222    2.6629 H       1  UNL1        0.1386
     53 H          -4.3489   -8.5378    6.3490 H       1  UNL1        0.0841
     54 H          -4.0858   -5.0636    8.9364 H       1  UNL1        0.1301
     55 H          -4.7181   -7.2088   10.1532 H       1  UNL1        0.2558
@<TRIPOS>BOND
     1     1    37    1
     2     1    35    1
     3     2     1    1
     4     3     2    1
     5     4     3   ar
     6     4    38    1
     7     5     4   ar
     8     6     7   ar
     9     6     5   ar
    10     7     8   ar
    11     8     9    1
    12     8     3   ar
    13     9    10    1
    14    10    42    1
    15    10    41    1
    16    11    10    1
    17    11    12   ar
    18    12    43    1
    19    13    12   ar
    20    13    44    1
    21    14    13   ar
    22    15    16   ar
    23    15    14   ar
    24    16    11   ar
    25    17    15    1
    26    18    20    1
    27    18     9   am
    28    19    18    2
    29    20    47    1
    30    21    20    1
    31    21    22   ar
    32    23    22   ar
    33    24    23   ar
    34    25    49    1
    35    25    24   ar
    36    26    25   ar
    37    27    26   ar
    38    27    28   ar
    39    28    29   ar
    40    29    24   ar
    41    29    21   ar
    42    30     5    1
    43    30    31   ar
    44    31    53    1
    45    32    31   ar
    46    33    32   ar
    47    34    33   ar
    48    34    30   ar
    49    36     1    1
    50    39     6    1
    51    40     7    1
    52    45    14    1
    53    46    16    1
    54    48    20    1
    55    50    26    1
    56    51    27    1
    57    52    28    1
    58    54    34    1
    59    55    33    1
