@<TRIPOS>MOLECULE
./Mol32.log
 53 57 0 0 0
SMALL
GASTEIGER

@<TRIPOS>ATOM
      1 CL         -5.3364   -4.3597   -2.4837 Cl      1  UNL1       -0.0938
      2 C          -5.0122   -2.8674   -1.6175 C.ar    1  UNL1        0.0250
      3 C          -6.0637   -2.2213   -0.9675 C.ar    1  UNL1       -0.0463
      4 C          -5.7788   -1.0400   -0.2782 C.ar    1  UNL1        0.0054
      5 C          -4.4909   -0.5071   -0.2333 C.ar    1  UNL1        0.0219
      6 C          -3.4481   -1.1716   -0.8951 C.ar    1  UNL1       -0.1136
      7 C          -3.7100   -2.3616   -1.5877 C.ar    1  UNL1        0.0203
      8 C          -2.0384   -0.5960   -0.9154 C.3     1  UNL1        0.3316
      9 N          -1.5496   -0.1052    0.3882 N.am    1  UNL1       -0.4321
     10 C          -1.0811   -0.9564    1.3722 C.2     1  UNL1        0.5298
     11 O          -0.6884   -0.5670    2.4622 O.2     1  UNL1       -0.5219
     12 C          -1.0200   -2.4622    1.0500 C.3     1  UNL1        0.0854
     13 N           0.1535   -2.8083    0.2671 N.ar    1  UNL1        0.1084
     14 N           0.0206   -3.2944   -1.0059 N.ar    1  UNL1       -0.0769
     15 N           1.1867   -3.5559   -1.4921 N.ar    1  UNL1       -0.3998
     16 C           2.1358   -3.2493   -0.5370 C.ar    1  UNL1        0.4220
     17 C           3.5383   -3.3597   -0.5645 C.ar    1  UNL1       -0.2788
     18 C           4.2296   -2.9645    0.5718 C.ar    1  UNL1       -0.0439
     19 C           3.5537   -2.4633    1.7150 C.ar    1  UNL1       -0.0942
     20 C           2.1705   -2.3439    1.7627 C.ar    1  UNL1       -0.1722
     21 C           1.4785   -2.7563    0.6105 C.ar    1  UNL1       -0.0201
     22 C          -1.5347    1.3130    0.6299 C.ar    1  UNL1        0.2614
     23 C          -0.9135    2.1717   -0.2869 C.ar    1  UNL1       -0.1795
     24 C          -0.9149    3.5504   -0.0778 C.ar    1  UNL1       -0.0939
     25 C          -1.5201    4.1133    1.0597 C.ar    1  UNL1        0.0614
     26 C          -2.1248    3.2371    1.9799 C.ar    1  UNL1       -0.1424
     27 C          -2.1341    1.8588    1.7731 C.ar    1  UNL1       -0.0883
     28 C          -1.5154    5.5797    1.2835 C.ar    1  UNL1       -0.1437
     29 C          -1.6778    6.4955    0.2308 C.ar    1  UNL1        0.0920
     30 C          -1.6624    7.8621    0.5037 C.ar    1  UNL1       -0.2949
     31 C          -1.4894    8.2791    1.8262 C.ar    1  UNL1        0.3446
     32 N          -1.3264    7.4306    2.8506 N.ar    1  UNL1       -0.5338
     33 C          -1.3381    6.1233    2.5712 C.ar    1  UNL1        0.3165
     34 CL         -7.0854   -0.2064    0.5494 Cl      1  UNL1       -0.0948
     35 H          -7.0737   -2.6265   -0.9931 H       1  UNL1        0.1024
     36 H          -4.3079    0.4189    0.3111 H       1  UNL1        0.0161
     37 H          -2.9041   -2.8988   -2.0899 H       1  UNL1        0.0223
     38 H          -1.3452   -1.3397   -1.3286 H       1  UNL1       -0.0114
     39 H          -2.0200    0.2617   -1.6012 H       1  UNL1       -0.0145
     40 H          -0.9727   -2.9712    2.0224 H       1  UNL1        0.0392
     41 H          -1.8915   -2.8309    0.4967 H       1  UNL1       -0.0267
     42 H           4.0470   -3.7423   -1.4503 H       1  UNL1        0.1435
     43 H           5.3191   -3.0337    0.5921 H       1  UNL1        0.0876
     44 H           4.1424   -2.1556    2.5820 H       1  UNL1        0.0963
     45 H           1.6484   -1.9336    2.6276 H       1  UNL1        0.1430
     46 H          -0.4035    1.7611   -1.1607 H       1  UNL1        0.1186
     47 H          -0.4025    4.1954   -0.7944 H       1  UNL1        0.0863
     48 H          -2.6230    3.6410    2.8632 H       1  UNL1        0.0957
     49 H          -2.6083    1.2027    2.5017 H       1  UNL1        0.1342
     50 H          -1.8383    6.1379   -0.7889 H       1  UNL1        0.0592
     51 H          -1.7941    8.5956   -0.2943 H       1  UNL1        0.1154
     52 H          -1.4814    9.3452    2.0765 H       1  UNL1        0.0124
     53 H          -1.1755    5.4541    3.4228 H       1  UNL1        0.0199
@<TRIPOS>BOND
     1     1     2    1
     2     2     3   ar
     3     3    35    1
     4     3     4   ar
     5     4    34    1
     6     5    36    1
     7     5     4   ar
     8     6     5   ar
     9     7     2   ar
    10     7     6   ar
    11     8     6    1
    12     8     9    1
    13     9    10   am
    14    10    12    1
    15    10    11    2
    16    12    40    1
    17    13    21   ar
    18    13    12    1
    19    14    13   ar
    20    15    14   ar
    21    15    16   ar
    22    16    21   ar
    23    17    16   ar
    24    17    18   ar
    25    18    19   ar
    26    19    20   ar
    27    19    44    1
    28    20    45    1
    29    21    20   ar
    30    22     9    1
    31    22    27   ar
    32    23    22   ar
    33    24    23   ar
    34    24    25   ar
    35    25    26   ar
    36    26    27   ar
    37    26    48    1
    38    27    49    1
    39    28    25    1
    40    28    33   ar
    41    29    28   ar
    42    30    29   ar
    43    30    31   ar
    44    31    32   ar
    45    32    33   ar
    46    33    53    1
    47    37     7    1
    48    38     8    1
    49    39     8    1
    50    41    12    1
    51    42    17    1
    52    43    18    1
    53    46    23    1
    54    47    24    1
    55    50    29    1
    56    51    30    1
    57    52    31    1
