@<TRIPOS>MOLECULE
./Mol40.log
 50 54 0 0 0
SMALL
GASTEIGER

@<TRIPOS>ATOM
      1 CL         -3.1586   -5.5957    5.5036 Cl      1  UNL1       -0.1271
      2 C          -2.7704   -3.9100    5.1814 C.ar    1  UNL1        0.0874
      3 C          -2.1037   -3.1602    6.1508 C.ar    1  UNL1       -0.1074
      4 C          -1.8027   -1.8242    5.8709 C.ar    1  UNL1       -0.0688
      5 C          -2.1604   -1.2486    4.6497 C.ar    1  UNL1       -0.1296
      6 C          -2.8266   -2.0106    3.6783 C.ar    1  UNL1        0.1215
      7 C          -3.1291   -3.3520    3.9527 C.ar    1  UNL1       -0.1228
      8 C          -3.2770   -1.4058    2.3586 C.3     1  UNL1       -0.0306
      9 N          -2.3327   -0.4547    1.7386 N.am    1  UNL1       -0.4531
     10 C          -1.1806   -0.9088    1.1053 C.2     1  UNL1        0.6090
     11 O          -0.3213   -0.1788    0.6447 O.2     1  UNL1       -0.5037
     12 C          -1.0266   -2.4403    1.0034 C.3     1  UNL1        0.0141
     13 N           0.1528   -2.8100    0.2654 N.ar    1  UNL1        0.2578
     14 N           0.0211   -3.2958   -1.0075 N.ar    1  UNL1       -0.2132
     15 N           1.1861   -3.5596   -1.4896 N.ar    1  UNL1       -0.3453
     16 C           2.1351   -3.2455   -0.5352 C.ar    1  UNL1        0.4209
     17 C           3.5363   -3.3572   -0.5630 C.ar    1  UNL1       -0.2656
     18 C           4.2316   -2.9647    0.5722 C.ar    1  UNL1       -0.0453
     19 C           3.5562   -2.4670    1.7159 C.ar    1  UNL1       -0.1189
     20 C           2.1728   -2.3466    1.7600 C.ar    1  UNL1       -0.1217
     21 C           1.4752   -2.7492    0.6094 C.ar    1  UNL1       -0.0686
     22 C          -2.6297    0.9409    1.8612 C.ar    1  UNL1        0.6153
     23 C          -2.0757    1.9300    1.0253 C.ar    1  UNL1       -0.4114
     24 C          -2.4772    3.2463    1.2158 C.ar    1  UNL1        0.1046
     25 C          -3.3993    3.5870    2.2225 C.ar    1  UNL1       -0.1265
     26 C          -3.8778    2.5156    2.9918 C.ar    1  UNL1        0.1679
     27 N          -3.5121    1.2421    2.8195 N.ar    1  UNL1       -0.4342
     28 C          -3.8404    4.9650    2.4636 C.ar    1  UNL1       -0.0091
     29 C          -3.1793    6.1466    2.1372 C.ar    1  UNL1       -0.1585
     30 N          -3.9756    7.1619    2.5587 N.ar    1  UNL1        0.0530
     31 N          -5.1175    6.7446    3.1373 N.ar    1  UNL1       -0.4244
     32 C          -5.0415    5.4171    3.0855 C.ar    1  UNL1        0.1061
     33 H          -1.8266   -3.6156    7.1017 H       1  UNL1        0.1036
     34 H          -1.2852   -1.2237    6.6224 H       1  UNL1        0.0996
     35 H          -1.9368   -0.2002    4.4533 H       1  UNL1        0.0867
     36 H          -3.6444   -3.9688    3.2137 H       1  UNL1        0.0855
     37 H          -3.5074   -2.2054    1.6407 H       1  UNL1        0.1220
     38 H          -4.2012   -0.8417    2.5301 H       1  UNL1        0.0418
     39 H          -1.0024   -2.8927    2.0068 H       1  UNL1       -0.0030
     40 H          -1.8741   -2.8776    0.4572 H       1  UNL1        0.0016
     41 H           4.0428   -3.7404   -1.4501 H       1  UNL1        0.1300
     42 H           5.3211   -3.0352    0.5915 H       1  UNL1        0.0855
     43 H           4.1435   -2.1646    2.5857 H       1  UNL1        0.0996
     44 H           1.6626   -1.9472    2.6372 H       1  UNL1        0.0923
     45 H          -1.3565    1.6696    0.2565 H       1  UNL1        0.1868
     46 H          -2.0781    4.0191    0.5548 H       1  UNL1        0.0681
     47 H          -4.5866    2.6940    3.8062 H       1  UNL1        0.0441
     48 H          -2.2164    6.3312    1.6688 H       1  UNL1        0.1332
     49 H          -5.8624    4.8205    3.4783 H       1  UNL1        0.0933
     50 H          -3.7947    8.1546    2.4842 H       1  UNL1        0.2574
@<TRIPOS>BOND
     1     1     2    1
     2     2     3   ar
     3     3     4   ar
     4     3    33    1
     5     4    34    1
     6     5    35    1
     7     5     4   ar
     8     6     5   ar
     9     7     6   ar
    10     7     2   ar
    11     8     9    1
    12     8     6    1
    13     9    10   am
    14     9    22    1
    15    10    11    2
    16    12    13    1
    17    12    10    1
    18    12    39    1
    19    13    21   ar
    20    14    15   ar
    21    14    13   ar
    22    15    16   ar
    23    16    21   ar
    24    16    17   ar
    25    17    18   ar
    26    18    19   ar
    27    18    42    1
    28    19    43    1
    29    20    44    1
    30    20    19   ar
    31    21    20   ar
    32    22    23   ar
    33    22    27   ar
    34    23    24   ar
    35    24    46    1
    36    24    25   ar
    37    25    28    1
    38    26    25   ar
    39    26    47    1
    40    27    26   ar
    41    28    29   ar
    42    29    30   ar
    43    29    48    1
    44    30    50    1
    45    31    30   ar
    46    32    28   ar
    47    32    31   ar
    48    36     7    1
    49    37     8    1
    50    38     8    1
    51    40    12    1
    52    41    17    1
    53    45    23    1
    54    49    32    1
