@<TRIPOS>MOLECULE
./Mol41.log
 51 55 0 0 0
SMALL
GASTEIGER

@<TRIPOS>ATOM
      1 C           1.4738   -2.7479    0.6095 C.ar    1  UNL1       -0.1052
      2 C           2.1349   -3.2433   -0.5351 C.ar    1  UNL1        0.4354
      3 C           2.1737   -2.3452    1.7592 C.ar    1  UNL1       -0.1282
      4 C           3.5365   -3.3553   -0.5636 C.ar    1  UNL1       -0.2834
      5 C           3.5563   -2.4693    1.7162 C.ar    1  UNL1       -0.1042
      6 C           4.2322   -2.9670    0.5724 C.ar    1  UNL1       -0.0481
      7 N           0.1512   -2.8085    0.2647 N.ar    1  UNL1        0.3231
      8 N           1.1874   -3.5589   -1.4896 N.ar    1  UNL1       -0.3616
      9 N           0.0213   -3.3002   -1.0062 N.ar    1  UNL1       -0.2034
     10 C          -1.0393   -2.4948    1.0168 C.3     1  UNL1       -0.0647
     11 C          -1.1939   -0.9848    1.2686 C.2     1  UNL1        0.5324
     12 N          -2.4289   -0.5731    1.7085 N.am    1  UNL1       -0.2635
     13 O          -0.2592   -0.2134    1.0984 O.2     1  UNL1       -0.4989
     14 C          -2.6376    0.8716    1.9482 C.3     1  UNL1        0.0304
     15 C          -3.1986    1.9069    5.5764 C.ar    1  UNL1        0.0891
     16 C          -1.8966    2.0710    6.0489 C.ar    1  UNL1       -0.0933
     17 C          -3.4506    1.5247    4.2567 C.ar    1  UNL1       -0.1098
     18 C          -0.8316    1.8463    5.1702 C.ar    1  UNL1       -0.0700
     19 C          -2.3798    1.2978    3.3817 C.ar    1  UNL1        0.0965
     20 C          -1.0648    1.4639    3.8482 C.ar    1  UNL1       -0.1655
     21 CL         -4.5564    2.1889    6.6636 Cl      1  UNL1       -0.1358
     22 C          -4.6884   -2.9393    3.5241 C.ar    1  UNL1       -0.1917
     23 C          -5.6747   -3.2019    2.5561 C.ar    1  UNL1       -0.0228
     24 C          -3.6219   -2.0842    3.2487 C.ar    1  UNL1       -0.0557
     25 C          -5.5591   -2.5777    1.2997 C.ar    1  UNL1       -0.0095
     26 C          -3.5121   -1.4743    1.9915 C.ar    1  UNL1        0.2158
     27 C          -4.4936   -1.7238    1.0216 C.ar    1  UNL1       -0.1460
     28 C          -6.8075   -4.0993    2.8214 C.ar    1  UNL1        0.3048
     29 C          -7.1070   -4.8148    3.9691 C.ar    1  UNL1       -0.2395
     30 N          -7.7730   -4.3381    1.8578 N.ar    1  UNL1       -0.4728
     31 N          -8.2709   -5.4920    3.6855 N.ar    1  UNL1       -0.2255
     32 C          -8.6290   -5.1713    2.4050 C.ar    1  UNL1        0.2036
     33 H           1.6637   -1.9338    2.6302 H       1  UNL1        0.1082
     34 H           4.0421   -3.7359   -1.4524 H       1  UNL1        0.1361
     35 H           4.1439   -2.1657    2.5856 H       1  UNL1        0.0902
     36 H           5.3217   -3.0380    0.5915 H       1  UNL1        0.0859
     37 H          -1.8842   -2.8933    0.4418 H       1  UNL1       -0.0136
     38 H          -1.0239   -3.0205    1.9861 H       1  UNL1        0.0290
     39 H          -1.9561    1.4023    1.2706 H       1  UNL1        0.0532
     40 H          -3.6737    1.1025    1.6638 H       1  UNL1        0.0348
     41 H          -1.7230    2.3737    7.0819 H       1  UNL1        0.0950
     42 H          -4.4807    1.4085    3.9159 H       1  UNL1        0.0667
     43 H           0.1926    1.9796    5.5262 H       1  UNL1        0.0950
     44 H          -0.2334    1.2887    3.1631 H       1  UNL1        0.1228
     45 H          -4.7516   -3.4024    4.5111 H       1  UNL1        0.1092
     46 H          -2.8682   -1.8795    4.0110 H       1  UNL1        0.0580
     47 H          -6.3220   -2.7803    0.5477 H       1  UNL1        0.0581
     48 H          -4.4104   -1.2471    0.0423 H       1  UNL1        0.1029
     49 H          -6.6155   -4.9033    4.9324 H       1  UNL1        0.1625
     50 H          -8.7670   -6.1127    4.3127 H       1  UNL1        0.2969
     51 H          -9.5202   -5.5756    1.9297 H       1  UNL1        0.0771
@<TRIPOS>BOND
     1     1     2   ar
     2     1     7   ar
     3     2     8   ar
     4     3     1   ar
     5     4    34    1
     6     4     2   ar
     7     5     6   ar
     8     5     3   ar
     9     6     4   ar
    10     7     9   ar
    11     8     9   ar
    12    10     7    1
    13    10    37    1
    14    10    11    1
    15    11    12   am
    16    11    13    2
    17    12    14    1
    18    14    39    1
    19    14    40    1
    20    15    17   ar
    21    16    18   ar
    22    16    15   ar
    23    17    19   ar
    24    17    42    1
    25    18    20   ar
    26    19    14    1
    27    20    44    1
    28    20    19   ar
    29    21    15    1
    30    22    24   ar
    31    22    23   ar
    32    23    25   ar
    33    24    26   ar
    34    25    27   ar
    35    25    47    1
    36    26    12    1
    37    26    27   ar
    38    27    48    1
    39    28    23    1
    40    28    30   ar
    41    29    31   ar
    42    29    28   ar
    43    31    32   ar
    44    32    51    1
    45    32    30   ar
    46    33     3    1
    47    35     5    1
    48    36     6    1
    49    38    10    1
    50    41    16    1
    51    43    18    1
    52    45    22    1
    53    46    24    1
    54    49    29    1
    55    50    31    1
