@<TRIPOS>MOLECULE
MOL
   41    44     1     0     0
SMALL
No Charge or Current Charge


@<TRIPOS>ATOM
      1 O1           0.1840    -1.7490    -0.0890 o          1 MOL       0.000000
      2 C1           0.0700    -0.5380    -0.2690 c          1 MOL       0.000000
      3 C2           1.0360     0.1730    -1.2300 c3         1 MOL       0.000000
      4 N1           2.3550     0.3230    -0.6380 na         1 MOL       0.000000
      5 N2           2.8240     1.5750    -0.3450 nc         1 MOL       0.000000
      6 N3           4.0230     1.4890     0.1230 nd         1 MOL       0.000000
      7 C3           4.3860     0.1570     0.1470 ca         1 MOL       0.000000
      8 C4           5.5850    -0.4590     0.5510 ca         1 MOL       0.000000
      9 C5           5.6580    -1.8410     0.4480 ca         1 MOL       0.000000
     10 C6           4.5640    -2.6050    -0.0350 ca         1 MOL       0.000000
     11 C7           3.3700    -2.0170    -0.4320 ca         1 MOL       0.000000
     12 C8           3.3090    -0.6160    -0.3390 ca         1 MOL       0.000000
     13 N4          -0.8760     0.2120     0.3760 n          1 MOL       0.000000
     14 C9          -1.7520    -0.4890     1.3460 c3         1 MOL       0.000000
     15 C10         -2.9990    -1.0950     0.7420 cc         1 MOL       0.000000
     16 C11         -4.3070    -0.5110     0.8270 cc         1 MOL       0.000000
     17 C12         -5.2720    -1.2540     0.2010 cd         1 MOL       0.000000
     18 S1          -4.6020    -2.6920    -0.5100 ss         1 MOL       0.000000
     19 C13         -3.0110    -2.2830     0.0470 cd         1 MOL       0.000000
     20 C14         -1.1030     1.6140     0.1490 ca         1 MOL       0.000000
     21 C15         -0.3100     2.5680     0.8000 ca         1 MOL       0.000000
     22 C16         -0.5550     3.9300     0.6010 ca         1 MOL       0.000000
     23 C17         -1.5960     4.3420    -0.2360 ca         1 MOL       0.000000
     24 C18         -2.3900     3.3890    -0.8820 ca         1 MOL       0.000000
     25 C19         -2.1460     2.0260    -0.6940 ca         1 MOL       0.000000
     26 H1           1.1120    -0.4600    -2.1270 h1         1 MOL       0.000000
     27 H2           0.7120     1.1780    -1.5170 h1         1 MOL       0.000000
     28 H3           6.4160     0.1400     0.9260 ha         1 MOL       0.000000
     29 H4           6.5710    -2.3580     0.7510 ha         1 MOL       0.000000
     30 H5           4.6620    -3.6920    -0.0850 ha         1 MOL       0.000000
     31 H6           2.5110    -2.6000    -0.7610 ha         1 MOL       0.000000
     32 H7          -1.1390    -1.2740     1.8060 h1         1 MOL       0.000000
     33 H8          -2.0240     0.2440     2.1170 h1         1 MOL       0.000000
     34 H9          -4.5150     0.4280     1.3440 ha         1 MOL       0.000000
     35 H10         -6.3380    -1.0490     0.1200 h4         1 MOL       0.000000
     36 H11         -2.1590    -2.9240    -0.1680 h4         1 MOL       0.000000
     37 H12          0.5100     2.2410     1.4400 ha         1 MOL       0.000000
     38 H13          0.0750     4.6690     1.0990 ha         1 MOL       0.000000
     39 H14         -1.7860     5.4070    -0.3900 ha         1 MOL       0.000000
     40 H15         -3.2020     3.7060    -1.5410 ha         1 MOL       0.000000
     41 H16         -2.7560     1.2750    -1.1960 ha         1 MOL       0.000000
@<TRIPOS>BOND
     1     1     2 2   
     2     2     3 1   
     3     2    13 1   
     4     3     4 1   
     5     3    26 1   
     6     3    27 1   
     7     4     5 1   
     8     4    12 1   
     9     5     6 2   
    10     6     7 1   
    11     7     8 ar  
    12     7    12 ar  
    13     8     9 ar  
    14     8    28 1   
    15     9    10 ar  
    16     9    29 1   
    17    10    11 ar  
    18    10    30 1   
    19    11    12 ar  
    20    11    31 1   
    21    13    14 1   
    22    13    20 1   
    23    14    15 1   
    24    14    32 1   
    25    14    33 1   
    26    15    16 1   
    27    15    19 2   
    28    16    17 2   
    29    16    34 1   
    30    17    18 1   
    31    17    35 1   
    32    18    19 1   
    33    19    36 1   
    34    20    21 ar  
    35    20    25 ar  
    36    21    22 ar  
    37    21    37 1   
    38    22    23 ar  
    39    22    38 1   
    40    23    24 ar  
    41    23    39 1   
    42    24    25 ar  
    43    24    40 1   
    44    25    41 1   
@<TRIPOS>SUBSTRUCTURE
     1 MOL         1 TEMP              0 ****  ****    0 ROOT
