@<TRIPOS>MOLECULE
MOL
   50    54     1     0     0
SMALL
No Charge or Current Charge


@<TRIPOS>ATOM
      1 O1           0.9820    -1.4650    -0.4290 o          1 MOL       0.000000
      2 C1           1.1530    -0.3470    -0.8770 c          1 MOL       0.000000
      3 C2           2.5590     0.1360    -1.2900 c3         1 MOL       0.000000
      4 N1           3.5610    -0.8720    -1.0610 na         1 MOL       0.000000
      5 N2           4.0980    -1.5380    -2.1290 nc         1 MOL       0.000000
      6 N3           4.9620    -2.3970    -1.7090 nd         1 MOL       0.000000
      7 C3           5.0170    -2.3230    -0.3300 ca         1 MOL       0.000000
      8 C4           5.8000    -3.0340     0.5960 ca         1 MOL       0.000000
      9 C5           5.6380    -2.7250     1.9400 ca         1 MOL       0.000000
     10 C6           4.7190    -1.7320     2.3630 ca         1 MOL       0.000000
     11 C7           3.9340    -1.0220     1.4620 ca         1 MOL       0.000000
     12 C8           4.1030    -1.3390     0.1040 ca         1 MOL       0.000000
     13 N4           0.1230     0.5680    -1.0630 n          1 MOL       0.000000
     14 C9           0.3810     1.9410    -1.5170 c3         1 MOL       0.000000
     15 C10          0.8530     2.8910    -0.4330 cc         1 MOL       0.000000
     16 C11          1.4520     4.1620    -0.7270 cc         1 MOL       0.000000
     17 C12          1.7690     4.8790     0.3950 cd         1 MOL       0.000000
     18 S1           1.3450     4.0190     1.8430 ss         1 MOL       0.000000
     19 C13          0.7330     2.6800     0.9190 cd         1 MOL       0.000000
     20 C14         -1.2290     0.1880    -0.7580 ca         1 MOL       0.000000
     21 C15         -2.2520     0.4480    -1.6800 ca         1 MOL       0.000000
     22 C16         -3.5740     0.1160    -1.3880 ca         1 MOL       0.000000
     23 C17         -3.9150    -0.5100    -0.1760 cp         1 MOL       0.000000
     24 C18         -2.8760    -0.7870     0.7300 ca         1 MOL       0.000000
     25 C19         -1.5550    -0.4440     0.4510 ca         1 MOL       0.000000
     26 C20         -5.3210    -0.8700     0.1320 cp         1 MOL       0.000000
     27 C21         -6.3980    -0.0620    -0.2710 ca         1 MOL       0.000000
     28 C22         -7.7020    -0.4460     0.0450 ca         1 MOL       0.000000
     29 N5          -8.0150    -1.5590     0.7240 nb         1 MOL       0.000000
     30 C23         -6.9870    -2.3290     1.1080 ca         1 MOL       0.000000
     31 C24         -5.6480    -2.0380     0.8430 ca         1 MOL       0.000000
     32 H1           2.5880     0.3500    -2.3680 h1         1 MOL       0.000000
     33 H2           2.8210     1.0600    -0.7510 h1         1 MOL       0.000000
     34 H3           6.5030    -3.7950     0.2570 ha         1 MOL       0.000000
     35 H4           6.2270    -3.2540     2.6920 ha         1 MOL       0.000000
     36 H5           4.6220    -1.5230     3.4310 ha         1 MOL       0.000000
     37 H6           3.2210    -0.2680     1.7970 ha         1 MOL       0.000000
     38 H7           1.1050     1.9360    -2.3460 h1         1 MOL       0.000000
     39 H8          -0.5540     2.3270    -1.9470 h1         1 MOL       0.000000
     40 H9           1.6410     4.5230    -1.7400 ha         1 MOL       0.000000
     41 H10          2.2350     5.8600     0.4580 h4         1 MOL       0.000000
     42 H11          0.3060     1.8190     1.4270 h4         1 MOL       0.000000
     43 H12         -2.0160     0.8940    -2.6480 ha         1 MOL       0.000000
     44 H13         -4.3460     0.3100    -2.1340 ha         1 MOL       0.000000
     45 H14         -3.1060    -1.2550     1.6890 ha         1 MOL       0.000000
     46 H15         -0.7710    -0.6770     1.1700 ha         1 MOL       0.000000
     47 H16         -6.2240     0.8740    -0.8050 ha         1 MOL       0.000000
     48 H17         -8.5450     0.1820    -0.2610 h4         1 MOL       0.000000
     49 H18         -7.2480    -3.2400     1.6560 h4         1 MOL       0.000000
     50 H19         -4.8690    -2.7310     1.1670 ha         1 MOL       0.000000
@<TRIPOS>BOND
     1     1     2 2   
     2     2     3 1   
     3     2    13 1   
     4     3     4 1   
     5     3    32 1   
     6     3    33 1   
     7     4     5 1   
     8     4    12 1   
     9     5     6 2   
    10     6     7 1   
    11     7     8 ar  
    12     7    12 ar  
    13     8     9 ar  
    14     8    34 1   
    15     9    10 ar  
    16     9    35 1   
    17    10    11 ar  
    18    10    36 1   
    19    11    12 ar  
    20    11    37 1   
    21    13    14 1   
    22    13    20 1   
    23    14    15 1   
    24    14    38 1   
    25    14    39 1   
    26    15    16 1   
    27    15    19 2   
    28    16    17 2   
    29    16    40 1   
    30    17    18 1   
    31    17    41 1   
    32    18    19 1   
    33    19    42 1   
    34    20    21 ar  
    35    20    25 ar  
    36    21    22 ar  
    37    21    43 1   
    38    22    23 ar  
    39    22    44 1   
    40    23    24 ar  
    41    23    26 1   
    42    24    25 ar  
    43    24    45 1   
    44    25    46 1   
    45    26    27 ar  
    46    26    31 ar  
    47    27    28 ar  
    48    27    47 1   
    49    28    29 ar  
    50    28    48 1   
    51    29    30 ar  
    52    30    31 ar  
    53    30    49 1   
    54    31    50 1   
@<TRIPOS>SUBSTRUCTURE
     1 MOL         1 TEMP              0 ****  ****    0 ROOT
