@<TRIPOS>MOLECULE
MOL
   53    57     1     0     0
SMALL
No Charge or Current Charge


@<TRIPOS>ATOM
      1 Cl1         -2.9720     5.9170    -0.4560 cl         1 MOL       0.000000
      2 C1          -2.1990     4.4530     0.1360 ca         1 MOL       0.000000
      3 C2          -2.1690     4.2000     1.5100 ca         1 MOL       0.000000
      4 C3          -1.5540     3.0310     1.9590 ca         1 MOL       0.000000
      5 C4          -0.9780     2.1310     1.0560 ca         1 MOL       0.000000
      6 C5          -1.0130     2.3930    -0.3200 ca         1 MOL       0.000000
      7 C6          -1.6330     3.5650    -0.7780 ca         1 MOL       0.000000
      8 C7          -0.3820     1.4620    -1.3510 c3         1 MOL       0.000000
      9 N1           0.0290     0.1390    -0.8670 n          1 MOL       0.000000
     10 C8          -0.9000    -0.8760    -0.6660 c          1 MOL       0.000000
     11 O1          -0.6210    -1.9580    -0.1850 o          1 MOL       0.000000
     12 C9          -2.3490    -0.5600    -1.0950 c3         1 MOL       0.000000
     13 N2          -3.2170    -1.6960    -0.9280 na         1 MOL       0.000000
     14 N3          -3.6600    -2.3650    -2.0380 nc         1 MOL       0.000000
     15 N4          -4.4190    -3.3410    -1.6760 nd         1 MOL       0.000000
     16 C10         -4.4980    -3.3460    -0.2970 ca         1 MOL       0.000000
     17 C11         -5.2000    -4.1920     0.5790 ca         1 MOL       0.000000
     18 C12         -5.0920    -3.9380     1.9390 ca         1 MOL       0.000000
     19 C13         -4.3010    -2.8680     2.4280 ca         1 MOL       0.000000
     20 C14         -3.5970    -2.0240     1.5780 ca         1 MOL       0.000000
     21 C15         -3.7140    -2.2840     0.2030 ca         1 MOL       0.000000
     22 C16          1.4210    -0.0750    -0.5880 ca         1 MOL       0.000000
     23 C17          2.1980     0.9630    -0.0500 ca         1 MOL       0.000000
     24 C18          3.5630     0.7870     0.1770 ca         1 MOL       0.000000
     25 C19          4.2000    -0.4300    -0.1120 cp         1 MOL       0.000000
     26 C20          3.4090    -1.4640    -0.6450 ca         1 MOL       0.000000
     27 C21          2.0470    -1.2980    -0.8840 ca         1 MOL       0.000000
     28 C22          5.6520    -0.6160     0.1310 cp         1 MOL       0.000000
     29 C23          6.2960    -0.0730     1.2550 ca         1 MOL       0.000000
     30 C24          7.6630    -0.2800     1.4280 ca         1 MOL       0.000000
     31 C25          8.3530    -1.0310     0.4720 ca         1 MOL       0.000000
     32 N5           7.7680    -1.5580    -0.6120 nb         1 MOL       0.000000
     33 C26          6.4570    -1.3460    -0.7650 ca         1 MOL       0.000000
     34 H1          -2.6210     4.9060     2.2070 ha         1 MOL       0.000000
     35 H2          -1.5230     2.8180     3.0300 ha         1 MOL       0.000000
     36 H3          -0.5000     1.2220     1.4250 ha         1 MOL       0.000000
     37 H4          -1.6790     3.7900    -1.8450 ha         1 MOL       0.000000
     38 H5          -1.0740     1.3440    -2.1990 h1         1 MOL       0.000000
     39 H6           0.5130     1.9400    -1.7720 h1         1 MOL       0.000000
     40 H7          -2.7390     0.3020    -0.5320 h1         1 MOL       0.000000
     41 H8          -2.3880    -0.3100    -2.1650 h1         1 MOL       0.000000
     42 H9          -5.8030    -5.0130     0.1880 ha         1 MOL       0.000000
     43 H10         -5.6210    -4.5730     2.6520 ha         1 MOL       0.000000
     44 H11         -4.2390    -2.7080     3.5070 ha         1 MOL       0.000000
     45 H12         -2.9760    -1.2150     1.9640 ha         1 MOL       0.000000
     46 H13          1.7430     1.9230     0.1990 ha         1 MOL       0.000000
     47 H14          4.1430     1.6240     0.5720 ha         1 MOL       0.000000
     48 H15          3.8620    -2.4330    -0.8640 ha         1 MOL       0.000000
     49 H16          1.4660    -2.1250    -1.2840 ha         1 MOL       0.000000
     50 H17          5.7240     0.4870     1.9990 ha         1 MOL       0.000000
     51 H18          8.1880     0.1240     2.2960 ha         1 MOL       0.000000
     52 H19          9.4260    -1.2200     0.5820 h4         1 MOL       0.000000
     53 H20          6.0110    -1.7670    -1.6730 h4         1 MOL       0.000000
@<TRIPOS>BOND
     1     1     2 1   
     2     2     3 ar  
     3     2     7 ar  
     4     3     4 ar  
     5     3    34 1   
     6     4     5 ar  
     7     4    35 1   
     8     5     6 ar  
     9     5    36 1   
    10     6     7 ar  
    11     6     8 1   
    12     7    37 1   
    13     8     9 1   
    14     8    38 1   
    15     8    39 1   
    16     9    10 1   
    17     9    22 1   
    18    10    11 2   
    19    10    12 1   
    20    12    13 1   
    21    12    40 1   
    22    12    41 1   
    23    13    14 1   
    24    13    21 1   
    25    14    15 2   
    26    15    16 1   
    27    16    17 ar  
    28    16    21 ar  
    29    17    18 ar  
    30    17    42 1   
    31    18    19 ar  
    32    18    43 1   
    33    19    20 ar  
    34    19    44 1   
    35    20    21 ar  
    36    20    45 1   
    37    22    23 ar  
    38    22    27 ar  
    39    23    24 ar  
    40    23    46 1   
    41    24    25 ar  
    42    24    47 1   
    43    25    26 ar  
    44    25    28 1   
    45    26    27 ar  
    46    26    48 1   
    47    27    49 1   
    48    28    29 ar  
    49    28    33 ar  
    50    29    30 ar  
    51    29    50 1   
    52    30    31 ar  
    53    30    51 1   
    54    31    32 ar  
    55    31    52 1   
    56    32    33 ar  
    57    33    53 1   
@<TRIPOS>SUBSTRUCTURE
     1 MOL         1 TEMP              0 ****  ****    0 ROOT
