@<TRIPOS>MOLECULE
MOL
   50    54     1     0     0
SMALL
No Charge or Current Charge


@<TRIPOS>ATOM
      1 Cl1         -2.7560     5.9610    -0.4280 cl         1 MOL       0.000000
      2 C1          -2.0020     4.4890     0.1670 ca         1 MOL       0.000000
      3 C2          -2.0080     4.2200     1.5390 ca         1 MOL       0.000000
      4 C3          -1.4080     3.0440     1.9900 ca         1 MOL       0.000000
      5 C4          -0.8110     2.1530     1.0910 ca         1 MOL       0.000000
      6 C5          -0.8080     2.4300    -0.2820 ca         1 MOL       0.000000
      7 C6          -1.4140     3.6100    -0.7420 ca         1 MOL       0.000000
      8 C7          -0.1540     1.5100    -1.3080 c3         1 MOL       0.000000
      9 N1           0.2640     0.1900    -0.8260 n          1 MOL       0.000000
     10 C8          -0.6500    -0.8420    -0.6370 c          1 MOL       0.000000
     11 O1          -0.3510    -1.9180    -0.1540 o          1 MOL       0.000000
     12 C9          -2.0970    -0.5490    -1.0800 c3         1 MOL       0.000000
     13 N2          -2.9470    -1.7040    -0.9470 na         1 MOL       0.000000
     14 N3          -3.3940    -2.3330    -2.0790 nc         1 MOL       0.000000
     15 N4          -4.1460    -3.3250    -1.7500 nd         1 MOL       0.000000
     16 C10         -4.2160    -3.3820    -0.3710 ca         1 MOL       0.000000
     17 C11         -4.9100    -4.2650     0.4760 ca         1 MOL       0.000000
     18 C12         -4.7960    -4.0610     1.8430 ca         1 MOL       0.000000
     19 C13         -4.0070    -3.0060     2.3680 ca         1 MOL       0.000000
     20 C14         -3.3110    -2.1270     1.5470 ca         1 MOL       0.000000
     21 C15         -3.4350    -2.3360     0.1640 ca         1 MOL       0.000000
     22 C16          1.6500    -0.0090    -0.5210 ca         1 MOL       0.000000
     23 C17          2.4100     1.0020     0.0830 ca         1 MOL       0.000000
     24 C18          3.7650     0.7910     0.3170 ca         1 MOL       0.000000
     25 C19          4.3480    -0.4340    -0.0510 ca         1 MOL       0.000000
     26 N5           3.6150    -1.4070    -0.6330 nb         1 MOL       0.000000
     27 C20          2.3200    -1.2000    -0.8580 ca         1 MOL       0.000000
     28 C21          5.7670    -0.7310     0.1610 cc         1 MOL       0.000000
     29 C22          6.7680     0.0650     0.7110 cd         1 MOL       0.000000
     30 N6           7.9040    -0.6760     0.6780 na         1 MOL       0.000000
     31 N7           7.7310    -1.9050     0.1470 nd         1 MOL       0.000000
     32 C23          6.4400    -1.9440    -0.1670 cc         1 MOL       0.000000
     33 H1          -2.4770     4.9180     2.2320 ha         1 MOL       0.000000
     34 H2          -1.4050     2.8190     3.0580 ha         1 MOL       0.000000
     35 H3          -0.3460     1.2380     1.4630 ha         1 MOL       0.000000
     36 H4          -1.4320     3.8470    -1.8070 ha         1 MOL       0.000000
     37 H5          -0.8320     1.3910    -2.1670 h1         1 MOL       0.000000
     38 H6           0.7430     2.0000    -1.7130 h1         1 MOL       0.000000
     39 H7          -2.5110     0.2950    -0.5050 h1         1 MOL       0.000000
     40 H8          -2.1290    -0.2790    -2.1450 h1         1 MOL       0.000000
     41 H9          -5.5110    -5.0740     0.0580 ha         1 MOL       0.000000
     42 H10         -5.3180    -4.7240     2.5350 ha         1 MOL       0.000000
     43 H11         -3.9390    -2.8860     3.4520 ha         1 MOL       0.000000
     44 H12         -2.6900    -1.3320     1.9600 ha         1 MOL       0.000000
     45 H13          1.9510     1.9480     0.3780 ha         1 MOL       0.000000
     46 H14          4.3610     1.5750     0.7880 ha         1 MOL       0.000000
     47 H15          1.7740    -2.0210    -1.3250 h4         1 MOL       0.000000
     48 H16          6.7610     1.0760     1.1110 h4         1 MOL       0.000000
     49 H17          6.0050    -2.8300    -0.6210 h4         1 MOL       0.000000
     50 H18          8.8240    -0.4030     1.0000 hn         1 MOL       0.000000
@<TRIPOS>BOND
     1     1     2 1   
     2     2     3 ar  
     3     2     7 ar  
     4     3     4 ar  
     5     3    33 1   
     6     4     5 ar  
     7     4    34 1   
     8     5     6 ar  
     9     5    35 1   
    10     6     7 ar  
    11     6     8 1   
    12     7    36 1   
    13     8     9 1   
    14     8    37 1   
    15     8    38 1   
    16     9    10 1   
    17     9    22 1   
    18    10    11 2   
    19    10    12 1   
    20    12    13 1   
    21    12    39 1   
    22    12    40 1   
    23    13    14 1   
    24    13    21 1   
    25    14    15 2   
    26    15    16 1   
    27    16    17 ar  
    28    16    21 ar  
    29    17    18 ar  
    30    17    41 1   
    31    18    19 ar  
    32    18    42 1   
    33    19    20 ar  
    34    19    43 1   
    35    20    21 ar  
    36    20    44 1   
    37    22    23 ar  
    38    22    27 ar  
    39    23    24 ar  
    40    23    45 1   
    41    24    25 ar  
    42    24    46 1   
    43    25    26 ar  
    44    25    28 1   
    45    26    27 ar  
    46    27    47 1   
    47    28    29 2   
    48    28    32 1   
    49    29    30 1   
    50    29    48 1   
    51    30    31 1   
    52    30    50 1   
    53    31    32 2   
    54    32    49 1   
@<TRIPOS>SUBSTRUCTURE
     1 MOL         1 TEMP              0 ****  ****    0 ROOT
