@<TRIPOS>MOLECULE
MOL
   53    57     1     0     0
SMALL
No Charge or Current Charge


@<TRIPOS>ATOM
      1 F1          -4.0720     4.5800    -1.1730 f          1 MOL       0.000000
      2 C1          -2.8970     4.0640    -0.7640 ca         1 MOL       0.000000
      3 C2          -2.0210     4.8830    -0.0610 ca         1 MOL       0.000000
      4 C3          -0.8130     4.3220     0.3610 ca         1 MOL       0.000000
      5 C4          -0.4860     2.9930     0.0910 ca         1 MOL       0.000000
      6 C5          -1.3900     2.1920    -0.6230 ca         1 MOL       0.000000
      7 C6          -2.6110     2.7310    -1.0500 ca         1 MOL       0.000000
      8 C7          -1.0470     0.7540    -0.9890 c3         1 MOL       0.000000
      9 N1          -0.3970    -0.0220     0.0850 n          1 MOL       0.000000
     10 C8          -1.1070    -0.5570     1.1430 c          1 MOL       0.000000
     11 O1          -0.5840    -1.1860     2.0520 o          1 MOL       0.000000
     12 C9          -2.6380    -0.3790     1.1420 c3         1 MOL       0.000000
     13 N2          -3.3000    -1.3470     0.2840 na         1 MOL       0.000000
     14 N3          -3.9920    -0.9340    -0.8220 nc         1 MOL       0.000000
     15 N4          -4.5140    -1.9570    -1.4120 nd         1 MOL       0.000000
     16 C10         -4.1780    -3.0900    -0.6970 ca         1 MOL       0.000000
     17 C11         -4.5000    -4.4420    -0.9120 ca         1 MOL       0.000000
     18 C12         -4.0040    -5.3660    -0.0030 ca         1 MOL       0.000000
     19 C13         -3.2000    -4.9670     1.0970 ca         1 MOL       0.000000
     20 C14         -2.8690    -3.6380     1.3270 ca         1 MOL       0.000000
     21 C15         -3.3840    -2.7090     0.4060 ca         1 MOL       0.000000
     22 C16          1.0220    -0.2500     0.0100 ca         1 MOL       0.000000
     23 C17          1.5840    -0.7800    -1.1590 ca         1 MOL       0.000000
     24 C18          2.9610    -0.9810    -1.2550 ca         1 MOL       0.000000
     25 C19          3.8160    -0.6760    -0.1820 cp         1 MOL       0.000000
     26 C20          3.2360    -0.1610     0.9920 ca         1 MOL       0.000000
     27 C21          1.8620     0.0490     1.0920 ca         1 MOL       0.000000
     28 C22          5.2800    -0.8950    -0.2820 cp         1 MOL       0.000000
     29 C23          5.9930    -0.6380    -1.4650 ca         1 MOL       0.000000
     30 C24          7.3680    -0.8640    -1.4990 ca         1 MOL       0.000000
     31 C25          7.9970    -1.3370    -0.3440 ca         1 MOL       0.000000
     32 N5           7.3440    -1.5970     0.7970 nb         1 MOL       0.000000
     33 C26          6.0250    -1.3800     0.8110 ca         1 MOL       0.000000
     34 Cl1          0.3220     5.3230     1.2520 cl         1 MOL       0.000000
     35 H1          -2.2800     5.9200     0.1500 ha         1 MOL       0.000000
     36 H2           0.4680     2.5920     0.4320 ha         1 MOL       0.000000
     37 H3          -3.3430     2.1260    -1.5870 ha         1 MOL       0.000000
     38 H4          -1.9520     0.2400    -1.3380 h1         1 MOL       0.000000
     39 H5          -0.3490     0.7660    -1.8360 h1         1 MOL       0.000000
     40 H6          -2.9550    -0.5360     2.1820 h1         1 MOL       0.000000
     41 H7          -2.9670     0.6140     0.8140 h1         1 MOL       0.000000
     42 H8          -5.1150    -4.7380    -1.7630 ha         1 MOL       0.000000
     43 H9          -4.2300    -6.4260    -0.1330 ha         1 MOL       0.000000
     44 H10         -2.8250    -5.7330     1.7800 ha         1 MOL       0.000000
     45 H11         -2.2280    -3.3290     2.1530 ha         1 MOL       0.000000
     46 H12          0.9410    -1.0610    -1.9950 ha         1 MOL       0.000000
     47 H13          3.3700    -1.4180    -2.1670 ha         1 MOL       0.000000
     48 H14          3.8730     0.1070     1.8370 ha         1 MOL       0.000000
     49 H15          1.4380     0.4470     2.0130 ha         1 MOL       0.000000
     50 H16          5.4770    -0.2430    -2.3430 ha         1 MOL       0.000000
     51 H17          7.9480    -0.6660    -2.4020 ha         1 MOL       0.000000
     52 H18          9.0770    -1.5170    -0.3330 h4         1 MOL       0.000000
     53 H19          5.5120    -1.6270     1.7470 h4         1 MOL       0.000000
@<TRIPOS>BOND
     1     1     2 1   
     2     2     3 ar  
     3     2     7 ar  
     4     3     4 ar  
     5     3    35 1   
     6     4     5 ar  
     7     4    34 1   
     8     5     6 ar  
     9     5    36 1   
    10     6     7 ar  
    11     6     8 1   
    12     7    37 1   
    13     8     9 1   
    14     8    38 1   
    15     8    39 1   
    16     9    10 1   
    17     9    22 1   
    18    10    11 2   
    19    10    12 1   
    20    12    13 1   
    21    12    40 1   
    22    12    41 1   
    23    13    14 1   
    24    13    21 1   
    25    14    15 2   
    26    15    16 1   
    27    16    17 ar  
    28    16    21 ar  
    29    17    18 ar  
    30    17    42 1   
    31    18    19 ar  
    32    18    43 1   
    33    19    20 ar  
    34    19    44 1   
    35    20    21 ar  
    36    20    45 1   
    37    22    23 ar  
    38    22    27 ar  
    39    23    24 ar  
    40    23    46 1   
    41    24    25 ar  
    42    24    47 1   
    43    25    26 ar  
    44    25    28 1   
    45    26    27 ar  
    46    26    48 1   
    47    27    49 1   
    48    28    29 ar  
    49    28    33 ar  
    50    29    30 ar  
    51    29    50 1   
    52    30    31 ar  
    53    30    51 1   
    54    31    32 ar  
    55    31    52 1   
    56    32    33 ar  
    57    33    53 1   
@<TRIPOS>SUBSTRUCTURE
     1 MOL         1 TEMP              0 ****  ****    0 ROOT
