@<TRIPOS>MOLECULE
/home/lqcapf-6/arquivos_joao/4D/Alinhamento/alinhadas2/Mol07_PAC_aligned.pdb
 51 55 0 0 0
SMALL
GASTEIGER

@<TRIPOS>ATOM
      1  O         19.2190   27.2610   19.2250 O.2     1  UNL1       -0.2735
      2  C         19.9500   26.5580   19.8700 C.2     1  UNL1        0.2390
      3  C         20.6250   25.3090   19.3100 C.3     1  UNL1        0.1082
      4  N         22.0460   25.7000   18.9120 N.pl3   1  UNL1       -0.2199
      5  N         22.3090   26.7230   18.0010 N.3     1  UNL1       -0.0148
      6  N         23.5460   26.9680   18.0960 N.pl3   1  UNL1       -0.1285
      7  C         24.1890   26.0500   18.9200 C.ar    1  UNL1        0.0926
      8  C         23.1830   25.1680   19.3310 C.ar    1  UNL1        0.0723
      9  C         23.4820   24.1240   20.1610 C.ar    1  UNL1       -0.0374
     10  C         24.8080   23.8700   20.5300 C.ar    1  UNL1       -0.0599
     11  C         25.8130   24.7520   20.1220 C.ar    1  UNL1       -0.0598
     12  C         25.5640   25.8670   19.3190 C.ar    1  UNL1       -0.0356
     13  N         20.1770   26.8080   21.2270 N.am    1  UNL1       -0.2657
     14  C         19.5000   27.9510   21.9680 C.3     1  UNL1        0.0454
     15  C         18.3320   27.3870   22.7700 C.ar    1  UNL1       -0.0227
     16  C         18.4140   27.2740   24.1170 C.ar    1  UNL1       -0.0196
     17  S         16.8520   26.7350   24.7720 S.2     1  UNL1       -0.1047
     18  C         16.1590   26.6360   23.1800 C.ar    1  UNL1       -0.0240
     19  C         17.0710   27.0090   22.1810 C.ar    1  UNL1       -0.0500
     20  C         21.2970   26.1740   21.9630 C.ar    1  UNL1        0.0367
     21  C         21.1290   25.0430   22.7680 C.ar    1  UNL1       -0.0397
     22  C         22.1920   24.6160   23.5510 C.ar    1  UNL1       -0.0523
     23  C         23.4750   25.2910   23.5660 C.ar    1  UNL1       -0.0178
     24  C         23.5640   26.4560   22.7800 C.ar    1  UNL1       -0.0523
     25  C         22.4790   26.9160   21.9780 C.ar    1  UNL1       -0.0397
     26  C         24.6640   24.7270   24.2380 C.ar    1  UNL1       -0.0179
     27  C         24.8410   23.3130   24.2330 C.ar    1  UNL1       -0.0540
     28  C         25.8690   22.7950   25.0130 C.ar    1  UNL1       -0.0612
     29  C         26.6920   23.5860   25.8000 C.ar    1  UNL1       -0.0617
     30  C         26.5580   24.9630   25.8250 C.ar    1  UNL1       -0.0612
     31  C         25.5470   25.5260   24.9880 C.ar    1  UNL1       -0.0540
     32  H         20.0180   24.8690   18.5100 H       1  UNL1        0.0576
     33  H         20.8260   24.4870   20.0100 H       1  UNL1        0.0576
     34  H         22.6450   23.4860   20.4330 H       1  UNL1        0.0637
     35  H         24.9420   23.0230   21.1960 H       1  UNL1        0.0618
     36  H         26.8550   24.4620   20.2220 H       1  UNL1        0.0618
     37  H         26.2900   26.4620   18.7740 H       1  UNL1        0.0638
     38  H         20.1930   28.4940   22.6230 H       1  UNL1        0.0518
     39  H         19.0890   28.6360   21.2160 H       1  UNL1        0.0518
     40  H         19.2670   27.4430   24.7610 H       1  UNL1        0.0696
     41  H         15.0940   26.4930   23.0580 H       1  UNL1        0.0693
     42  H         16.8540   27.2320   21.1440 H       1  UNL1        0.0626
     43  H         20.2310   24.4330   22.7600 H       1  UNL1        0.0636
     44  H         22.0770   23.6660   24.0630 H       1  UNL1        0.0624
     45  H         24.5310   26.9480   22.8250 H       1  UNL1        0.0624
     46  H         22.5070   27.7800   21.3210 H       1  UNL1        0.0636
     47  H         24.2960   22.7520   23.4810 H       1  UNL1        0.0624
     48  H         26.1080   21.7360   24.9830 H       1  UNL1        0.0618
     49  H         27.6380   23.1610   26.1220 H       1  UNL1        0.0618
     50  H         27.3390   25.4740   26.3810 H       1  UNL1        0.0618
     51  H         25.4170   26.6020   24.9490 H       1  UNL1        0.0624
@<TRIPOS>BOND
     1     1     2    2
     2     2    13   am
     3     2     3    1
     4     3    33    1
     5     3    32    1
     6     3     4    1
     7     4     8    1
     8     4     5    1
     9     5     6    1
    10     6     7    1
    11     7     8   ar
    12     7    12   ar
    13     8     9   ar
    14     9    34    1
    15     9    10   ar
    16    10    35    1
    17    10    11   ar
    18    11    36    1
    19    11    12   ar
    20    12    37    1
    21    13    14    1
    22    13    20    1
    23    14    15    1
    24    14    39    1
    25    14    38    1
    26    15    19   ar
    27    15    16   ar
    28    16    17   ar
    29    16    40    1
    30    17    18   ar
    31    18    41    1
    32    18    19   ar
    33    19    42    1
    34    20    21   ar
    35    20    25   ar
    36    21    43    1
    37    21    22   ar
    38    22    44    1
    39    22    23   ar
    40    23    26    1
    41    23    24   ar
    42    24    25   ar
    43    24    45    1
    44    25    46    1
    45    26    27   ar
    46    26    31   ar
    47    27    47    1
    48    27    28   ar
    49    28    48    1
    50    28    29   ar
    51    29    49    1
    52    29    30   ar
    53    30    31   ar
    54    30    50    1
    55    31    51    1
