@<TRIPOS>MOLECULE
/home/lqcapf-6/arquivos_joao/4D/Alinhamento/alinhadas2/Mol08_PAC_aligned.pdb
 50 54 0 0 0
SMALL
GASTEIGER

@<TRIPOS>ATOM
      1  O         25.1820   29.0680   15.9250 O.2     1  UNL1       -0.2732
      2  C         25.7180   28.6740   16.9460 C.2     1  UNL1        0.2416
      3  C         25.7210   27.1640   17.2360 C.3     1  UNL1        0.1204
      4  N         24.5390   26.7670   18.0910 N.ar    1  UNL1       -0.2351
      5  N         23.2660   27.2280   17.7970 N.ar    1  UNL1       -0.0641
      6  N         22.4090   26.4970   18.4740 N.ar    1  UNL1       -0.1295
      7  C         23.1510   25.5590   19.1770 C.ar    1  UNL1        0.1127
      8  C         24.4910   25.7360   18.9740 C.ar    1  UNL1        0.0895
      9  C         25.5030   25.0750   19.6630 C.ar    1  UNL1       -0.0345
     10  C         25.1410   24.0240   20.5030 C.ar    1  UNL1       -0.0596
     11  C         23.7560   23.7900   20.7090 C.ar    1  UNL1       -0.0596
     12  C         22.6830   24.5450   20.0050 C.ar    1  UNL1       -0.0324
     13  N         26.3140   29.5160   17.9080 N.am    1  UNL1       -0.2656
     14  C         26.0990   30.9700   17.8100 C.3     1  UNL1        0.0454
     15  C         27.0230   31.9090   18.5440 C.ar    1  UNL1       -0.0227
     16  C         26.7490   32.6360   19.7060 C.ar    1  UNL1       -0.0196
     17  S         27.9770   33.8730   20.0830 S.2     1  UNL1       -0.1047
     18  C         28.7990   33.4710   18.5570 C.ar    1  UNL1       -0.0240
     19  C         28.1760   32.4090   17.8490 C.ar    1  UNL1       -0.0500
     20  C         26.8600   28.9200   19.1410 C.ar    1  UNL1        0.0367
     21  C         26.0530   28.8810   20.2990 C.ar    1  UNL1       -0.0397
     22  C         26.5280   28.2800   21.4800 C.ar    1  UNL1       -0.0522
     23  C         27.8600   27.7710   21.6070 C.ar    1  UNL1       -0.0163
     24  C         28.7050   27.9930   20.5010 C.ar    1  UNL1       -0.0522
     25  C         28.1970   28.5370   19.3170 C.ar    1  UNL1       -0.0397
     26  C         28.4100   27.2360   22.8850 C.ar    1  UNL1        0.0002
     27  C         27.8730   27.5110   24.2080 C.ar    1  UNL1        0.0352
     28  N         28.3110   27.0730   25.4090 N.ar    1  UNL1       -0.2627
     29  C         29.5140   26.4260   25.4040 C.ar    1  UNL1        0.0276
     30  C         30.1910   26.1680   24.2360 C.ar    1  UNL1       -0.0430
     31  C         29.6510   26.5940   22.9750 C.ar    1  UNL1       -0.0512
     32  H         26.6740   26.8310   17.6620 H       1  UNL1        0.0606
     33  H         25.6610   26.6300   16.2790 H       1  UNL1        0.0606
     34  H         26.5550   25.1980   19.4210 H       1  UNL1        0.0639
     35  H         25.9170   23.4730   21.0260 H       1  UNL1        0.0618
     36  H         23.5250   22.9690   21.3820 H       1  UNL1        0.0618
     37  H         21.6130   24.4260   20.1400 H       1  UNL1        0.0640
     38  H         26.2010   31.1920   16.7410 H       1  UNL1        0.0518
     39  H         25.0490   31.1260   18.0870 H       1  UNL1        0.0518
     40  H         25.8770   32.5770   20.3430 H       1  UNL1        0.0696
     41  H         29.6980   34.0450   18.3790 H       1  UNL1        0.0693
     42  H         28.5700   31.9660   16.9420 H       1  UNL1        0.0626
     43  H         25.0370   29.2630   20.2870 H       1  UNL1        0.0636
     44  H         25.8660   28.1850   22.3350 H       1  UNL1        0.0624
     45  H         29.7590   27.7970   20.6730 H       1  UNL1        0.0624
     46  H         28.8390   28.6970   18.4550 H       1  UNL1        0.0636
     47  H         27.0540   28.2200   24.3140 H       1  UNL1        0.0836
     48  H         29.9180   26.1330   26.3710 H       1  UNL1        0.0829
     49  H         31.1720   25.7090   24.1690 H       1  UNL1        0.0633
     50  H         30.1860   26.2360   22.1000 H       1  UNL1        0.0625
@<TRIPOS>BOND
     1     1     2    2
     2     2    13   am
     3     2     3    1
     4     3     4    1
     5     3    33    1
     6     3    32    1
     7     4     5   ar
     8     4     8   ar
     9     5     6   ar
    10     6     7   ar
    11     7    12   ar
    12     7     8   ar
    13     8     9   ar
    14     9    10   ar
    15     9    34    1
    16    10    11   ar
    17    10    35    1
    18    11    12   ar
    19    11    36    1
    20    12    37    1
    21    13    14    1
    22    13    20    1
    23    14    39    1
    24    14    38    1
    25    14    15    1
    26    15    16   ar
    27    15    19   ar
    28    16    40    1
    29    16    17   ar
    30    17    18   ar
    31    18    19   ar
    32    18    41    1
    33    19    42    1
    34    20    21   ar
    35    20    25   ar
    36    21    43    1
    37    21    22   ar
    38    22    44    1
    39    22    23   ar
    40    23    24   ar
    41    23    26    1
    42    24    25   ar
    43    24    45    1
    44    25    46    1
    45    26    27   ar
    46    26    31   ar
    47    27    47    1
    48    27    28   ar
    49    28    29   ar
    50    29    48    1
    51    29    30   ar
    52    30    31   ar
    53    30    49    1
    54    31    50    1
