@<TRIPOS>MOLECULE
/home/lqcapf-6/arquivos_joao/4D/Alinhamento/alinhadas2/Mol09_PAC_aligned.pdb
 41 44 0 0 0
SMALL
GASTEIGER

@<TRIPOS>ATOM
      1  O         26.4300   25.8270   16.6660 O.2     1  UNL1       -0.2732
      2  C         26.6010   26.9890   16.9850 C.2     1  UNL1        0.2416
      3  C         25.6720   27.7550   17.9470 C.3     1  UNL1        0.1204
      4  N         24.4900   26.9710   18.3490 N.ar    1  UNL1       -0.2351
      5  N         23.2590   27.2660   17.8880 N.ar    1  UNL1       -0.0641
      6  N         22.3950   26.3860   18.3630 N.ar    1  UNL1       -0.1295
      7  C         23.1720   25.4880   19.0570 C.ar    1  UNL1        0.1127
      8  C         22.7680   24.3650   19.7450 C.ar    1  UNL1       -0.0324
      9  C         23.7530   23.7390   20.5760 C.ar    1  UNL1       -0.0596
     10  C         25.1210   24.0620   20.5690 C.ar    1  UNL1       -0.0596
     11  C         25.5070   25.1420   19.7500 C.ar    1  UNL1       -0.0345
     12  C         24.4730   25.8020   19.0950 C.ar    1  UNL1        0.0895
     13  N         27.7630   27.6980   16.5370 N.am    1  UNL1       -0.2658
     14  C         28.8720   26.9540   15.9340 C.3     1  UNL1        0.0419
     15  C         29.5170   26.2100   17.0120 C.2     1  UNL1       -0.0410
     16  C         29.4820   24.8080   17.1240 C.3     1  UNL1        0.0032
     17  C         30.0440   24.3250   18.3010 C.3     1  UNL1        0.0291
     18  S         31.1820   25.6340   18.9580 S.3     1  UNL1       -0.1279
     19  C         30.3490   26.8030   17.9370 C.2     1  UNL1       -0.0273
     20  C         27.8760   29.0840   16.7970 C.ar    1  UNL1        0.0367
     21  C         27.5300   29.9900   15.7380 C.ar    1  UNL1       -0.0403
     22  C         27.5270   31.3780   15.9570 C.ar    1  UNL1       -0.0600
     23  C         27.8770   31.8920   17.1510 C.ar    1  UNL1       -0.0616
     24  C         28.3700   31.0470   18.1660 C.ar    1  UNL1       -0.0600
     25  C         28.3310   29.6030   18.0440 C.ar    1  UNL1       -0.0403
     26  H         26.1950   27.9050   18.8990 H       1  UNL1        0.0606
     27  H         25.3460   28.6670   17.4320 H       1  UNL1        0.0606
     28  H         21.7120   24.1610   19.8980 H       1  UNL1        0.0640
     29  H         23.3900   22.9160   21.1840 H       1  UNL1        0.0618
     30  H         25.8400   23.3580   20.9760 H       1  UNL1        0.0618
     31  H         26.5270   25.4840   19.6000 H       1  UNL1        0.0639
     32  H         28.5850   26.2980   15.1030 H       1  UNL1        0.0515
     33  H         29.6220   27.5960   15.4570 H       1  UNL1        0.0515
     34  H         28.9560   24.1590   16.4340 H       1  UNL1        0.0364
     35  H         30.0350   23.3120   18.6830 H       1  UNL1        0.0432
     36  H         30.4790   27.8560   18.1460 H       1  UNL1        0.0690
     37  H         27.2260   29.6780   14.7440 H       1  UNL1        0.0636
     38  H         27.2650   32.0320   15.1300 H       1  UNL1        0.0618
     39  H         27.8670   32.9700   17.2760 H       1  UNL1        0.0618
     40  H         28.7140   31.5060   19.0880 H       1  UNL1        0.0618
     41  H         28.6800   28.9690   18.8550 H       1  UNL1        0.0636
@<TRIPOS>BOND
     1     1     2    2
     2     2     3    1
     3     2    13   am
     4     3    27    1
     5     3     4    1
     6     3    26    1
     7     4     5   ar
     8     4    12   ar
     9     5     6   ar
    10     6     7   ar
    11     7     8   ar
    12     7    12   ar
    13     8    28    1
    14     8     9   ar
    15     9    29    1
    16     9    10   ar
    17    10    11   ar
    18    10    30    1
    19    11    12   ar
    20    11    31    1
    21    13    20    1
    22    13    14    1
    23    14    32    1
    24    14    33    1
    25    14    15    1
    26    15    19    2
    27    15    16    1
    28    16    34    1
    29    16    17    1
    30    17    18    1
    31    17    35    1
    32    18    19    1
    33    19    36    1
    34    20    21   ar
    35    20    25   ar
    36    21    22   ar
    37    21    37    1
    38    22    38    1
    39    22    23   ar
    40    23    39    1
    41    23    24   ar
    42    24    40    1
    43    24    25   ar
    44    25    41    1
