@<TRIPOS>MOLECULE
/home/lqcapf-6/arquivos_joao/4D/Alinhamento/alinhadas2/Mol19_PAC_aligned.pdb
 48 52 0 0 0
SMALL
GASTEIGER

@<TRIPOS>ATOM
      1  O         25.2070   29.4350   18.5560 O.2     1  UNL1       -0.2732
      2  C         26.1060   28.8340   18.0250 C.2     1  UNL1        0.2416
      3  C         25.7720   27.4200   17.5060 C.3     1  UNL1        0.1204
      4  N         24.5480   26.7410   18.0110 N.ar    1  UNL1       -0.2351
      5  N         23.2470   27.0950   17.7080 N.ar    1  UNL1       -0.0641
      6  N         22.4480   26.4860   18.5350 N.ar    1  UNL1       -0.1295
      7  C         23.1950   25.5890   19.2900 C.ar    1  UNL1        0.1127
      8  C         22.7750   24.6250   20.1890 C.ar    1  UNL1       -0.0324
      9  C         23.7050   23.8090   20.7460 C.ar    1  UNL1       -0.0596
     10  C         25.0810   24.0550   20.4110 C.ar    1  UNL1       -0.0596
     11  C         25.4570   25.0280   19.5090 C.ar    1  UNL1       -0.0345
     12  C         24.4830   25.7930   18.9950 C.ar    1  UNL1        0.0895
     13  N         27.4370   29.3290   18.0040 N.am    1  UNL1       -0.2656
     14  C         28.5420   28.6590   17.3620 C.3     1  UNL1        0.0454
     15  C         29.5020   27.8750   18.2000 C.ar    1  UNL1       -0.0227
     16  C         29.0510   27.0770   19.2670 C.ar    1  UNL1       -0.0500
     17  C         29.9950   26.3290   19.9860 C.ar    1  UNL1       -0.0240
     18  S         31.5070   26.6710   19.2110 S.2     1  UNL1       -0.1047
     19  C         30.8320   27.7400   18.0210 C.ar    1  UNL1       -0.0196
     20  C         27.8640   30.5960   18.5970 C.ar    1  UNL1        0.0367
     21  C         28.1630   30.6250   19.9680 C.ar    1  UNL1       -0.0397
     22  C         28.6740   31.7750   20.5290 C.ar    1  UNL1       -0.0522
     23  C         28.6350   32.9910   19.8480 C.ar    1  UNL1       -0.0148
     24  C         28.1450   33.0110   18.5110 C.ar    1  UNL1       -0.0522
     25  C         27.7810   31.7910   17.8930 C.ar    1  UNL1       -0.0397
     26  C         29.0710   34.2680   20.4620 C.ar    1  UNL1        0.0193
     27  C         29.6960   34.2480   21.6830 C.ar    1  UNL1        0.0300
     28  N         29.8930   35.6170   21.7880 N.ar    1  UNL1       -0.2841
     29  N         29.5990   36.4080   20.6600 N.ar    1  UNL1       -0.1817
     30  C         29.0280   35.5260   19.8430 C.ar    1  UNL1        0.0568
     31  H         25.7530   27.5220   16.4140 H       1  UNL1        0.0606
     32  H         26.5910   26.7510   17.7960 H       1  UNL1        0.0606
     33  H         21.7140   24.5930   20.4160 H       1  UNL1        0.0640
     34  H         23.2920   23.1550   21.5080 H       1  UNL1        0.0618
     35  H         25.8330   23.4650   20.9270 H       1  UNL1        0.0618
     36  H         26.5190   25.2150   19.3740 H       1  UNL1        0.0639
     37  H         28.1100   27.9640   16.6300 H       1  UNL1        0.0518
     38  H         29.1360   29.3450   16.7460 H       1  UNL1        0.0518
     39  H         28.0160   27.0490   19.5900 H       1  UNL1        0.0626
     40  H         29.8680   25.7960   20.9190 H       1  UNL1        0.0693
     41  H         31.4420   28.1860   17.2470 H       1  UNL1        0.0696
     42  H         28.0720   29.7430   20.5940 H       1  UNL1        0.0636
     43  H         28.9680   31.8190   21.5730 H       1  UNL1        0.0624
     44  H         28.2440   33.9490   17.9710 H       1  UNL1        0.0624
     45  H         27.4080   31.7800   16.8730 H       1  UNL1        0.0636
     46  H         29.8160   33.5450   22.4970 H       1  UNL1        0.0830
     47  H         28.5930   35.8590   18.9090 H       1  UNL1        0.0854
     48  H         30.2510   36.1610   22.5600 H       1  UNL1        0.1882
@<TRIPOS>BOND
     1     1     2    2
     2     2    13   am
     3     2     3    1
     4     3     4    1
     5     3    32    1
     6     3    31    1
     7     4    12   ar
     8     4     5   ar
     9     5     6   ar
    10     6     7   ar
    11     7     8   ar
    12     7    12   ar
    13     8    33    1
    14     8     9   ar
    15     9    34    1
    16     9    10   ar
    17    10    35    1
    18    10    11   ar
    19    11    12   ar
    20    11    36    1
    21    13    20    1
    22    13    14    1
    23    14    15    1
    24    14    38    1
    25    14    37    1
    26    15    16   ar
    27    15    19   ar
    28    16    39    1
    29    16    17   ar
    30    17    40    1
    31    17    18   ar
    32    18    19   ar
    33    19    41    1
    34    20    21   ar
    35    20    25   ar
    36    21    22   ar
    37    21    42    1
    38    22    43    1
    39    22    23   ar
    40    23    26    1
    41    23    24   ar
    42    24    44    1
    43    24    25   ar
    44    25    45    1
    45    26    27   ar
    46    26    30   ar
    47    27    28   ar
    48    27    46    1
    49    28    48    1
    50    28    29   ar
    51    29    30   ar
    52    30    47    1
