@<TRIPOS>MOLECULE
/home/lqcapf-6/arquivos_joao/4D/Alinhamento/alinhadas2/Mol16_PAC_aligned.pdb
 54 58 0 0 0
SMALL
GASTEIGER

@<TRIPOS>ATOM
      1  C         23.6400   33.9530   24.6900 C.3     1  UNL1        0.0804
      2  O         24.3150   33.8460   23.4060 O.3     1  UNL1       -0.4792
      3  C         25.4090   34.7400   23.0280 C.ar    1  UNL1        0.2224
      4  N         25.4510   35.9320   23.7060 N.ar    1  UNL1       -0.2208
      5  C         26.4110   36.8350   23.3380 C.ar    1  UNL1        0.0314
      6  C         27.2410   36.6320   22.2570 C.ar    1  UNL1       -0.0428
      7  C         27.0990   35.4400   21.5120 C.ar    1  UNL1       -0.0475
      8  C         26.1800   34.3920   21.9440 C.ar    1  UNL1        0.0437
      9  C         26.0350   33.1430   21.2220 C.ar    1  UNL1       -0.0127
     10  C         25.9170   31.8550   21.9560 C.ar    1  UNL1       -0.0521
     11  C         26.0790   30.6290   21.3530 C.ar    1  UNL1       -0.0397
     12  C         26.3860   30.5150   20.0000 C.ar    1  UNL1        0.0367
     13  C         26.4930   31.6550   19.2340 C.ar    1  UNL1       -0.0397
     14  C         26.1990   32.9550   19.8330 C.ar    1  UNL1       -0.0521
     15  N         26.5750   29.2990   19.3360 N.am    1  UNL1       -0.2656
     16  C         27.5670   28.3510   19.9020 C.3     1  UNL1        0.0454
     17  C         28.7270   29.0610   20.6060 C.ar    1  UNL1       -0.0227
     18  C         29.4990   29.9880   19.9570 C.ar    1  UNL1       -0.0500
     19  C         30.5520   30.3980   20.7680 C.ar    1  UNL1       -0.0240
     20  S         30.4550   29.7410   22.3880 S.2     1  UNL1       -0.1047
     21  C         29.0630   28.7680   21.9210 C.ar    1  UNL1       -0.0196
     22  C         25.8440   28.9310   18.1510 C.2     1  UNL1        0.2416
     23  O         25.0490   29.7360   17.6770 O.2     1  UNL1       -0.2732
     24  C         25.8080   27.4970   17.7010 C.3     1  UNL1        0.1204
     25  N         24.5840   26.8350   18.2040 N.ar    1  UNL1       -0.2351
     26  N         23.3140   27.2240   17.8240 N.ar    1  UNL1       -0.0641
     27  N         22.3810   26.4850   18.4070 N.ar    1  UNL1       -0.1295
     28  C         23.1200   25.5210   19.1100 C.ar    1  UNL1        0.1127
     29  C         22.6900   24.5020   20.0020 C.ar    1  UNL1       -0.0324
     30  C         23.7340   23.7140   20.6360 C.ar    1  UNL1       -0.0596
     31  C         25.0920   24.0530   20.5040 C.ar    1  UNL1       -0.0596
     32  C         25.5350   25.0980   19.7150 C.ar    1  UNL1       -0.0345
     33  C         24.4900   25.7900   18.9900 C.ar    1  UNL1        0.0895
     34  H         23.5100   34.9980   24.9980 H       1  UNL1        0.0660
     35  H         22.6070   33.5950   24.7850 H       1  UNL1        0.0660
     36  H         24.2710   33.6090   25.5180 H       1  UNL1        0.0660
     37  H         26.4990   37.7720   23.8870 H       1  UNL1        0.0831
     38  H         28.0510   37.3020   21.9840 H       1  UNL1        0.0633
     39  H         27.6990   35.3350   20.6130 H       1  UNL1        0.0626
     40  H         25.6530   31.9680   23.0040 H       1  UNL1        0.0624
     41  H         26.0840   29.7090   21.9300 H       1  UNL1        0.0636
     42  H         26.7080   31.6580   18.1690 H       1  UNL1        0.0636
     43  H         26.2870   33.8530   19.2300 H       1  UNL1        0.0624
     44  H         26.9830   27.7180   20.5810 H       1  UNL1        0.0518
     45  H         28.0590   27.6910   19.1770 H       1  UNL1        0.0518
     46  H         29.4790   30.1580   18.8870 H       1  UNL1        0.0626
     47  H         31.4510   30.8620   20.3830 H       1  UNL1        0.0693
     48  H         28.5270   28.1510   22.6310 H       1  UNL1        0.0696
     49  H         25.7770   27.5650   16.6070 H       1  UNL1        0.0606
     50  H         26.6750   26.8660   17.9320 H       1  UNL1        0.0606
     51  H         21.6360   24.3810   20.2320 H       1  UNL1        0.0640
     52  H         23.5490   23.0150   21.4460 H       1  UNL1        0.0618
     53  H         25.7570   23.4210   21.0840 H       1  UNL1        0.0618
     54  H         26.5930   25.3100   19.5920 H       1  UNL1        0.0639
@<TRIPOS>BOND
     1     1    35    1
     2     1    36    1
     3     1    34    1
     4     1     2    1
     5     2     3    1
     6     3     4   ar
     7     3     8   ar
     8     4     5   ar
     9     5    37    1
    10     5     6   ar
    11     6     7   ar
    12     6    38    1
    13     7     8   ar
    14     7    39    1
    15     8     9    1
    16     9    10   ar
    17     9    14   ar
    18    10    40    1
    19    10    11   ar
    20    11    41    1
    21    11    12   ar
    22    12    15    1
    23    12    13   ar
    24    13    14   ar
    25    13    42    1
    26    14    43    1
    27    15    16    1
    28    15    22   am
    29    16    44    1
    30    16    17    1
    31    16    45    1
    32    17    21   ar
    33    17    18   ar
    34    18    19   ar
    35    18    46    1
    36    19    20   ar
    37    19    47    1
    38    20    21   ar
    39    21    48    1
    40    22    24    1
    41    22    23    2
    42    24    25    1
    43    24    50    1
    44    24    49    1
    45    25    33   ar
    46    25    26   ar
    47    26    27   ar
    48    27    28   ar
    49    28    29   ar
    50    28    33   ar
    51    29    51    1
    52    29    30   ar
    53    30    52    1
    54    30    31   ar
    55    31    53    1
    56    31    32   ar
    57    32    33   ar
    58    32    54    1
