@<TRIPOS>MOLECULE
/home/lqcapf-6/arquivos_joao/4D/Alinhamento/alinhadas2/Mol10_PAC_aligned.pdb
 45 48 0 0 0
SMALL
GASTEIGER

@<TRIPOS>ATOM
      1  N         31.6510   24.7730   12.2010 N.am    1  UNL1       -0.3253
      2  C         30.9800   23.9510   13.0480 C.2     1  UNL1        0.2415
      3  O         30.9790   22.7300   12.9770 O.2     1  UNL1       -0.2704
      4  C         29.9830   24.5920   13.9030 C.ar    1  UNL1        0.0366
      5  C         29.1280   23.8020   14.6540 C.ar    1  UNL1       -0.0479
      6  C         28.0900   24.3840   15.3520 C.ar    1  UNL1       -0.0395
      7  C         27.8880   25.8350   15.3530 C.ar    1  UNL1        0.0367
      8  C         28.8880   26.6020   14.8180 C.ar    1  UNL1       -0.0395
      9  C         29.8550   26.0280   14.0520 C.ar    1  UNL1       -0.0479
     10  N         26.7750   26.4450   15.9140 N.am    1  UNL1       -0.2658
     11  C         25.5210   26.5960   15.1370 C.3     1  UNL1        0.0420
     12  C         25.1880   25.5270   14.1120 C.2     1  UNL1       -0.0406
     13  C         25.0180   25.9070   12.7090 C.2     1  UNL1       -0.0680
     14  C         25.0860   24.8000   11.8740 C.3     1  UNL1        0.0395
     15  S         24.8810   23.3590   12.8310 S.3     1  UNL1       -0.1426
     16  C         25.1070   24.1680   14.3830 C.3     1  UNL1        0.0439
     17  C         26.8500   26.9910   17.2710 C.2     1  UNL1        0.2416
     18  O         27.8600   26.8840   18.0120 O.2     1  UNL1       -0.2732
     19  C         25.6610   27.7380   17.8780 C.3     1  UNL1        0.1204
     20  N         24.5060   26.9840   18.3610 N.ar    1  UNL1       -0.2351
     21  N         23.2590   27.2570   17.9340 N.ar    1  UNL1       -0.0641
     22  N         22.4780   26.3630   18.3730 N.ar    1  UNL1       -0.1295
     23  C         23.1750   25.4470   19.0460 C.ar    1  UNL1        0.1127
     24  C         22.7150   24.3250   19.7600 C.ar    1  UNL1       -0.0324
     25  C         23.6860   23.6740   20.5720 C.ar    1  UNL1       -0.0596
     26  C         25.0770   24.1220   20.5440 C.ar    1  UNL1       -0.0596
     27  C         25.5440   25.2010   19.7400 C.ar    1  UNL1       -0.0345
     28  C         24.4990   25.8480   19.0630 C.ar    1  UNL1        0.0895
     29  H         31.5160   25.7760   12.1370 H       1  UNL1        0.1453
     30  H         32.2670   24.3440   11.5220 H       1  UNL1        0.1453
     31  H         29.2850   22.7320   14.7460 H       1  UNL1        0.0626
     32  H         27.4580   23.7740   15.9910 H       1  UNL1        0.0636
     33  H         28.8910   27.6800   14.9540 H       1  UNL1        0.0636
     34  H         30.5490   26.6820   13.5300 H       1  UNL1        0.0626
     35  H         24.6780   26.7640   15.8180 H       1  UNL1        0.0515
     36  H         25.6540   27.4900   14.5170 H       1  UNL1        0.0515
     37  H         25.0110   26.9520   12.4210 H       1  UNL1        0.0584
     38  H         25.1860   24.7020   10.8020 H       1  UNL1        0.0469
     39  H         25.2020   23.7030   15.3560 H       1  UNL1        0.0472
     40  H         26.0230   28.3520   18.7120 H       1  UNL1        0.0606
     41  H         25.2850   28.5130   17.1990 H       1  UNL1        0.0606
     42  H         21.6580   24.0770   19.7760 H       1  UNL1        0.0640
     43  H         23.2870   22.9070   21.2290 H       1  UNL1        0.0618
     44  H         25.7330   23.5080   21.1530 H       1  UNL1        0.0618
     45  H         26.5530   25.6040   19.7350 H       1  UNL1        0.0639
@<TRIPOS>BOND
     1     1    29    1
     2     1     2   am
     3     1    30    1
     4     2     4    1
     5     2     3    2
     6     4     9   ar
     7     4     5   ar
     8     5     6   ar
     9     5    31    1
    10     6     7   ar
    11     6    32    1
    12     7    10    1
    13     7     8   ar
    14     8    33    1
    15     8     9   ar
    16     9    34    1
    17    10    17   am
    18    10    11    1
    19    11    35    1
    20    11    36    1
    21    11    12    1
    22    12    13    2
    23    12    16    1
    24    13    37    1
    25    13    14    1
    26    14    15    1
    27    14    38    1
    28    15    16    1
    29    16    39    1
    30    17    19    1
    31    17    18    2
    32    19    40    1
    33    19    41    1
    34    19    20    1
    35    20    21   ar
    36    20    28   ar
    37    21    22   ar
    38    22    23   ar
    39    23    28   ar
    40    23    24   ar
    41    24    25   ar
    42    24    42    1
    43    25    26   ar
    44    25    43    1
    45    26    27   ar
    46    26    44    1
    47    27    45    1
    48    27    28   ar
