@<TRIPOS>MOLECULE
/home/lqcapf-6/arquivos_joao/4D/Alinhamento/alinhadas2/Mol13_PAC_aligned.pdb
 53 57 0 0 0
SMALL
GASTEIGER

@<TRIPOS>ATOM
      1  O         26.2260   28.6560   19.2510 O.2     1  UNL1       -0.2732
      2  C         26.5010   28.3200   18.1090 C.2     1  UNL1        0.2416
      3  C         25.5840   27.2760   17.2990 C.3     1  UNL1        0.1204
      4  N         24.5130   26.8450   18.1210 N.ar    1  UNL1       -0.2351
      5  N         23.2190   27.2370   17.7680 N.ar    1  UNL1       -0.0641
      6  N         22.4050   26.4000   18.4510 N.ar    1  UNL1       -0.1295
      7  C         23.1900   25.5800   19.2300 C.ar    1  UNL1        0.1127
      8  C         22.7520   24.4790   20.0010 C.ar    1  UNL1       -0.0324
      9  C         23.7240   23.7740   20.6870 C.ar    1  UNL1       -0.0596
     10  C         25.1050   24.0130   20.5040 C.ar    1  UNL1       -0.0596
     11  C         25.5130   25.0800   19.6320 C.ar    1  UNL1       -0.0345
     12  C         24.5170   25.8130   19.0000 C.ar    1  UNL1        0.0895
     13  N         27.6090   28.8670   17.4280 N.am    1  UNL1       -0.2656
     14  C         28.1580   28.2960   16.2170 C.3     1  UNL1        0.0454
     15  C         28.9100   27.0120   16.3700 C.ar    1  UNL1       -0.0227
     16  C         29.9850   26.6170   15.4580 C.ar    1  UNL1       -0.0500
     17  C         30.5230   25.4160   15.6660 C.ar    1  UNL1       -0.0240
     18  S         29.9230   24.7500   17.1600 S.2     1  UNL1       -0.1047
     19  C         28.7990   26.0410   17.2950 C.ar    1  UNL1       -0.0196
     20  C         28.3690   29.8170   18.1150 C.ar    1  UNL1        0.0368
     21  C         27.9210   31.1480   18.1540 C.ar    1  UNL1       -0.0385
     22  C         28.5180   32.0510   19.0490 C.ar    1  UNL1       -0.0376
     23  C         29.7680   31.7190   19.6330 C.ar    1  UNL1        0.0478
     24  C         30.2240   30.4300   19.5290 C.ar    1  UNL1       -0.0376
     25  C         29.5870   29.4640   18.7740 C.ar    1  UNL1       -0.0385
     26  N         30.3120   32.6650   20.4770 N.pl3   1  UNL1       -0.2204
     27  S         31.9560   32.8070   20.9520 S.O2    1  UNL1        0.0460
     28  O         32.2210   31.7520   21.9260 O.2     1  UNL1       -0.1549
     29  O         32.7790   32.7970   19.7600 O.2     1  UNL1       -0.1549
     30  C         32.2040   34.3940   21.8800 C.3     1  UNL1        0.0959
     31  C         31.0390   35.0480   22.5540 C.3     1  UNL1       -0.0272
     32  C         31.6180   35.7280   21.3460 C.3     1  UNL1       -0.0272
     33  H         25.2100   27.7520   16.3840 H       1  UNL1        0.0606
     34  H         26.1220   26.3680   17.0010 H       1  UNL1        0.0606
     35  H         21.6890   24.2550   20.0350 H       1  UNL1        0.0640
     36  H         23.4000   22.9580   21.3270 H       1  UNL1        0.0618
     37  H         25.8710   23.3570   20.9080 H       1  UNL1        0.0618
     38  H         26.5280   25.3470   19.3510 H       1  UNL1        0.0639
     39  H         27.3700   28.1220   15.4730 H       1  UNL1        0.0518
     40  H         28.9340   28.9980   15.8870 H       1  UNL1        0.0518
     41  H         30.2100   27.2200   14.5870 H       1  UNL1        0.0626
     42  H         31.1790   24.8500   15.0170 H       1  UNL1        0.0693
     43  H         28.1310   25.9650   18.1430 H       1  UNL1        0.0696
     44  H         26.9490   31.3710   17.7240 H       1  UNL1        0.0637
     45  H         27.9180   32.9290   19.2690 H       1  UNL1        0.0637
     46  H         31.0860   30.1840   20.1430 H       1  UNL1        0.0637
     47  H         29.9230   28.4340   18.8550 H       1  UNL1        0.0637
     48  H         29.8490   33.5630   20.4100 H       1  UNL1        0.1733
     49  H         33.1070   34.4420   22.4870 H       1  UNL1        0.0554
     50  H         30.0960   34.5260   22.4100 H       1  UNL1        0.0285
     51  H         31.0900   35.6130   23.4800 H       1  UNL1        0.0285
     52  H         32.1410   36.6560   21.5610 H       1  UNL1        0.0285
     53  H         31.0570   35.6130   20.4220 H       1  UNL1        0.0285
@<TRIPOS>BOND
     1     1     2    2
     2     2    13   am
     3     2     3    1
     4     3     4    1
     5     3    33    1
     6     3    34    1
     7     4     5   ar
     8     4    12   ar
     9     5     6   ar
    10     6     7   ar
    11     7    12   ar
    12     7     8   ar
    13     8     9   ar
    14     8    35    1
    15     9    10   ar
    16     9    36    1
    17    10    11   ar
    18    10    37    1
    19    11    38    1
    20    11    12   ar
    21    13    20    1
    22    13    14    1
    23    14    40    1
    24    14    39    1
    25    14    15    1
    26    15    19   ar
    27    15    16   ar
    28    16    41    1
    29    16    17   ar
    30    17    18   ar
    31    17    42    1
    32    18    19   ar
    33    19    43    1
    34    20    21   ar
    35    20    25   ar
    36    21    22   ar
    37    21    44    1
    38    22    45    1
    39    22    23   ar
    40    23    26    1
    41    23    24   ar
    42    24    46    1
    43    24    25   ar
    44    25    47    1
    45    26    27    1
    46    26    48    1
    47    27    30    1
    48    27    28    2
    49    27    29    2
    50    30    31    1
    51    30    32    1
    52    30    49    1
    53    31    51    1
    54    31    32    1
    55    31    50    1
    56    32    52    1
    57    32    53    1
