@<TRIPOS>MOLECULE
/home/lqcapf-6/arquivos_joao/4D/Alinhamento/alinhadas2/Mol11_PAC_aligned.pdb
 52 56 0 0 0
SMALL
GASTEIGER

@<TRIPOS>ATOM
      1  O         25.3050   29.5470   18.2000 O.2     1  UNL1       -0.2732
      2  C         25.8390   28.9090   17.3350 C.2     1  UNL1        0.2416
      3  C         25.6630   27.4000   17.2950 C.3     1  UNL1        0.1204
      4  N         24.5520   26.8190   18.1180 N.ar    1  UNL1       -0.2351
      5  N         23.2800   27.2200   17.8780 N.ar    1  UNL1       -0.0641
      6  N         22.4210   26.4050   18.4630 N.ar    1  UNL1       -0.1295
      7  C         23.1610   25.5460   19.1600 C.ar    1  UNL1        0.1127
      8  C         22.6650   24.5080   19.9670 C.ar    1  UNL1       -0.0324
      9  C         23.7340   23.7690   20.6420 C.ar    1  UNL1       -0.0596
     10  C         25.1050   24.0680   20.5270 C.ar    1  UNL1       -0.0596
     11  C         25.5180   25.0820   19.6690 C.ar    1  UNL1       -0.0345
     12  C         24.5050   25.8040   18.9700 C.ar    1  UNL1        0.0895
     13  N         26.6560   29.5720   16.4200 N.am    1  UNL1       -0.2656
     14  C         27.3710   28.9020   15.3000 C.3     1  UNL1        0.0454
     15  C         28.3590   27.9410   15.8400 C.ar    1  UNL1       -0.0227
     16  C         28.5610   26.7090   15.0540 C.ar    1  UNL1       -0.0500
     17  C         29.3830   25.7880   15.7780 C.ar    1  UNL1       -0.0240
     18  S         30.1270   26.5010   17.2000 S.2     1  UNL1       -0.1047
     19  C         29.0650   27.9410   17.0190 C.ar    1  UNL1       -0.0196
     20  C         26.9650   30.9780   16.4950 C.ar    1  UNL1        0.0367
     21  C         28.2880   31.5260   16.7390 C.ar    1  UNL1       -0.0395
     22  C         28.5120   32.9040   16.8220 C.ar    1  UNL1       -0.0479
     23  C         27.4070   33.8130   16.6730 C.ar    1  UNL1        0.0368
     24  C         26.1050   33.3360   16.5410 C.ar    1  UNL1       -0.0479
     25  C         25.9390   31.9350   16.4310 C.ar    1  UNL1       -0.0395
     26  C         27.6070   35.3150   16.5410 C.2     1  UNL1        0.2443
     27  O         26.6890   36.1130   16.6700 O.2     1  UNL1       -0.2702
     28  N         28.9300   35.7510   16.3220 N.am    1  UNL1       -0.3085
     29  C         29.3680   37.0890   16.0110 C.3     1  UNL1        0.0235
     30  C         30.8450   37.4900   16.1760 C.3     1  UNL1       -0.0328
     31  C         29.7650   38.0510   17.1580 C.3     1  UNL1       -0.0328
     32  H         25.5210   27.1380   16.2400 H       1  UNL1        0.0606
     33  H         26.6090   26.9340   17.5980 H       1  UNL1        0.0606
     34  H         21.6310   24.2990   20.2210 H       1  UNL1        0.0640
     35  H         23.4000   23.0560   21.3900 H       1  UNL1        0.0618
     36  H         25.8580   23.5160   21.0810 H       1  UNL1        0.0618
     37  H         26.5920   25.2340   19.6210 H       1  UNL1        0.0639
     38  H         26.6440   28.3040   14.7370 H       1  UNL1        0.0518
     39  H         27.7400   29.6710   14.6100 H       1  UNL1        0.0518
     40  H         28.0630   26.5260   14.1100 H       1  UNL1        0.0626
     41  H         29.5590   24.7460   15.5420 H       1  UNL1        0.0693
     42  H         29.1200   28.7120   17.7770 H       1  UNL1        0.0696
     43  H         29.1260   30.8540   16.8940 H       1  UNL1        0.0636
     44  H         29.4320   33.3380   17.2030 H       1  UNL1        0.0626
     45  H         25.2760   33.9700   16.2380 H       1  UNL1        0.0626
     46  H         24.8980   31.7090   16.2220 H       1  UNL1        0.0636
     47  H         29.6240   35.0390   16.1310 H       1  UNL1        0.1493
     48  H         28.8880   37.4900   15.1190 H       1  UNL1        0.0498
     49  H         31.4470   36.6440   16.4970 H       1  UNL1        0.0284
     50  H         31.2810   38.2210   15.4990 H       1  UNL1        0.0284
     51  H         29.3650   39.0590   17.0890 H       1  UNL1        0.0284
     52  H         29.7730   37.7580   18.2050 H       1  UNL1        0.0284
@<TRIPOS>BOND
     1     1     2    2
     2     2     3    1
     3     2    13   am
     4     3     4    1
     5     3    33    1
     6     3    32    1
     7     4    12   ar
     8     4     5   ar
     9     5     6   ar
    10     6     7   ar
    11     7     8   ar
    12     7    12   ar
    13     8     9   ar
    14     8    34    1
    15     9    35    1
    16     9    10   ar
    17    10    36    1
    18    10    11   ar
    19    11    37    1
    20    11    12   ar
    21    13    20    1
    22    13    14    1
    23    14    15    1
    24    14    38    1
    25    14    39    1
    26    15    19   ar
    27    15    16   ar
    28    16    17   ar
    29    16    40    1
    30    17    18   ar
    31    17    41    1
    32    18    19   ar
    33    19    42    1
    34    20    21   ar
    35    20    25   ar
    36    21    43    1
    37    21    22   ar
    38    22    44    1
    39    22    23   ar
    40    23    24   ar
    41    23    26    1
    42    24    25   ar
    43    24    45    1
    44    25    46    1
    45    26    28   am
    46    26    27    2
    47    28    47    1
    48    28    29    1
    49    29    31    1
    50    29    30    1
    51    29    48    1
    52    30    49    1
    53    30    31    1
    54    30    50    1
    55    31    52    1
    56    31    51    1
