@<TRIPOS>MOLECULE
/home/lqcapf-6/arquivos_joao/4D/Alinhamento/alinhadas2/Mol15_PAC_aligned.pdb
 50 54 0 0 0
SMALL
GASTEIGER

@<TRIPOS>ATOM
      1  O         25.0000   29.5010   16.5500 O.2     1  UNL1       -0.2732
      2  C         25.2440   29.2580   17.7130 C.2     1  UNL1        0.2416
      3  C         25.5990   27.8560   18.1410 C.3     1  UNL1        0.1204
      4  N         24.4840   26.9960   18.3580 N.ar    1  UNL1       -0.2351
      5  N         23.2340   27.2270   17.8370 N.ar    1  UNL1       -0.0641
      6  N         22.4800   26.2770   18.3260 N.ar    1  UNL1       -0.1295
      7  C         23.1620   25.4940   19.1410 C.ar    1  UNL1        0.1127
      8  C         22.7760   24.4230   19.8830 C.ar    1  UNL1       -0.0324
      9  C         23.7090   23.6990   20.5500 C.ar    1  UNL1       -0.0596
     10  C         25.1210   24.0750   20.4620 C.ar    1  UNL1       -0.0596
     11  C         25.4800   25.1500   19.6990 C.ar    1  UNL1       -0.0345
     12  C         24.4940   25.8800   19.1360 C.ar    1  UNL1        0.0895
     13  N         25.1250   30.2900   18.6290 N.am    1  UNL1       -0.2656
     14  C         25.4180   30.0200   20.0740 C.3     1  UNL1        0.0454
     15  C         24.3400   29.1910   20.7370 C.ar    1  UNL1       -0.0227
     16  C         24.7320   28.2180   21.7270 C.ar    1  UNL1       -0.0500
     17  C         23.6330   27.6900   22.3700 C.ar    1  UNL1       -0.0240
     18  S         22.1190   28.4710   21.8470 S.2     1  UNL1       -0.1047
     19  C         22.9890   29.4540   20.7170 C.ar    1  UNL1       -0.0196
     20  C         24.9190   31.6170   18.1890 C.ar    1  UNL1        0.0367
     21  C         23.7310   31.9860   17.6100 C.ar    1  UNL1       -0.0396
     22  C         23.4820   33.2950   17.1270 C.ar    1  UNL1       -0.0508
     23  C         24.5150   34.2020   17.2300 C.ar    1  UNL1        0.0005
     24  C         25.7630   33.8050   17.8180 C.ar    1  UNL1       -0.0508
     25  C         25.9160   32.4770   18.2580 C.ar    1  UNL1       -0.0396
     26  C         24.3920   35.6510   16.9640 C.ar    1  UNL1        0.0710
     27  C         23.2460   36.3150   16.4060 C.ar    1  UNL1       -0.0357
     28  C         23.2380   37.7140   15.9970 C.ar    1  UNL1       -0.0583
     29  C         24.4360   38.3780   16.0960 C.ar    1  UNL1       -0.0436
     30  C         25.5430   37.7000   16.7110 C.ar    1  UNL1        0.0283
     31  N         25.4690   36.4310   17.2000 N.ar    1  UNL1       -0.2550
     32  H         26.2140   27.3820   17.3660 H       1  UNL1        0.0606
     33  H         26.2470   27.8040   19.0250 H       1  UNL1        0.0606
     34  H         21.7060   24.2370   19.8910 H       1  UNL1        0.0640
     35  H         23.3600   22.8170   21.0770 H       1  UNL1        0.0618
     36  H         25.8340   23.4770   21.0210 H       1  UNL1        0.0618
     37  H         26.5260   25.4410   19.6600 H       1  UNL1        0.0639
     38  H         26.3700   29.4980   20.2230 H       1  UNL1        0.0518
     39  H         25.4700   30.9690   20.6230 H       1  UNL1        0.0518
     40  H         25.7530   27.9270   21.9460 H       1  UNL1        0.0626
     41  H         23.5340   26.9390   23.1410 H       1  UNL1        0.0693
     42  H         22.4030   30.1170   20.0960 H       1  UNL1        0.0696
     43  H         22.9520   31.2490   17.4410 H       1  UNL1        0.0636
     44  H         22.4830   33.4380   16.7270 H       1  UNL1        0.0625
     45  H         26.5660   34.5190   17.9770 H       1  UNL1        0.0625
     46  H         26.8890   32.0900   18.5440 H       1  UNL1        0.0636
     47  H         22.4050   35.6780   16.1470 H       1  UNL1        0.0639
     48  H         22.3310   38.1110   15.5530 H       1  UNL1        0.0619
     49  H         24.6520   39.3840   15.7460 H       1  UNL1        0.0633
     50  H         26.5250   38.1650   16.7870 H       1  UNL1        0.0830
@<TRIPOS>BOND
     1     1     2    2
     2     2    13   am
     3     2     3    1
     4     3    32    1
     5     3    33    1
     6     3     4    1
     7     4     5   ar
     8     4    12   ar
     9     5     6   ar
    10     6     7   ar
    11     7    12   ar
    12     7     8   ar
    13     8     9   ar
    14     8    34    1
    15     9    10   ar
    16     9    35    1
    17    10    11   ar
    18    10    36    1
    19    11    37    1
    20    11    12   ar
    21    13    20    1
    22    13    14    1
    23    14    38    1
    24    14    39    1
    25    14    15    1
    26    15    16   ar
    27    15    19   ar
    28    16    40    1
    29    16    17   ar
    30    17    18   ar
    31    17    41    1
    32    18    19   ar
    33    19    42    1
    34    20    25   ar
    35    20    21   ar
    36    21    22   ar
    37    21    43    1
    38    22    23   ar
    39    22    44    1
    40    23    26    1
    41    23    24   ar
    42    24    45    1
    43    24    25   ar
    44    25    46    1
    45    26    31   ar
    46    26    27   ar
    47    27    28   ar
    48    27    47    1
    49    28    29   ar
    50    28    48    1
    51    29    49    1
    52    29    30   ar
    53    30    50    1
    54    30    31   ar
