@<TRIPOS>MOLECULE
/home/lqcapf-6/arquivos_joao/4D/Alinhamento/alinhadas2/Mol12_PAC_aligned.pdb
 49 52 0 0 0
SMALL
GASTEIGER

@<TRIPOS>ATOM
      1  C         28.5270   36.9970   20.5130 C.3     1  UNL1        0.0736
      2  S         27.6960   36.0630   19.1570 S.O2    1  UNL1        0.0403
      3  O         28.2030   36.2730   17.7760 O.2     1  UNL1       -0.1555
      4  O         26.2560   36.2680   19.4580 O.2     1  UNL1       -0.1555
      5  N         28.1600   34.4330   19.6050 N.pl3   1  UNL1       -0.2209
      6  C         27.9850   33.2970   18.8690 C.ar    1  UNL1        0.0478
      7  C         26.9390   33.2180   17.9390 C.ar    1  UNL1       -0.0376
      8  C         26.7010   31.9730   17.3270 C.ar    1  UNL1       -0.0385
      9  C         27.3610   30.8260   17.7200 C.ar    1  UNL1        0.0368
     10  C         28.4660   30.8770   18.6400 C.ar    1  UNL1       -0.0385
     11  C         28.7520   32.1590   19.0690 C.ar    1  UNL1       -0.0376
     12  N         26.9840   29.5460   17.2430 N.am    1  UNL1       -0.2656
     13  C         27.2840   29.2550   15.8640 C.3     1  UNL1        0.0454
     14  C         28.2130   28.0610   15.6780 C.ar    1  UNL1       -0.0227
     15  C         27.9040   26.9440   14.8800 C.ar    1  UNL1       -0.0500
     16  C         28.9890   26.0430   14.7210 C.ar    1  UNL1       -0.0240
     17  S         30.3330   26.6340   15.6530 S.2     1  UNL1       -0.1047
     18  C         29.4440   27.9690   16.2480 C.ar    1  UNL1       -0.0196
     19  C         26.1190   28.6940   17.9360 C.2     1  UNL1        0.2416
     20  O         25.6150   29.1080   18.9860 O.2     1  UNL1       -0.2732
     21  C         25.6730   27.3590   17.3560 C.3     1  UNL1        0.1204
     22  N         24.5130   26.7960   18.0750 N.ar    1  UNL1       -0.2351
     23  N         23.2250   27.2260   17.7740 N.ar    1  UNL1       -0.0641
     24  N         22.4150   26.3800   18.4260 N.ar    1  UNL1       -0.1295
     25  C         23.1750   25.5490   19.2030 C.ar    1  UNL1        0.1127
     26  C         22.7620   24.6080   20.1170 C.ar    1  UNL1       -0.0324
     27  C         23.7390   23.7770   20.7020 C.ar    1  UNL1       -0.0596
     28  C         25.0970   23.9980   20.4070 C.ar    1  UNL1       -0.0596
     29  C         25.5150   25.0720   19.6420 C.ar    1  UNL1       -0.0345
     30  C         24.4980   25.8150   19.0470 C.ar    1  UNL1        0.0895
     31  H         28.4300   38.0860   20.4240 H       1  UNL1        0.0482
     32  H         28.1180   36.5890   21.4450 H       1  UNL1        0.0482
     33  H         29.6040   36.8200   20.3980 H       1  UNL1        0.0482
     34  H         29.0270   34.3910   20.1270 H       1  UNL1        0.1733
     35  H         26.2900   34.0490   17.6770 H       1  UNL1        0.0637
     36  H         26.0060   31.9690   16.4930 H       1  UNL1        0.0637
     37  H         29.1030   30.0520   18.9460 H       1  UNL1        0.0637
     38  H         29.6200   32.2180   19.7180 H       1  UNL1        0.0637
     39  H         26.3620   29.0860   15.2950 H       1  UNL1        0.0518
     40  H         27.6210   30.1590   15.3420 H       1  UNL1        0.0518
     41  H         26.9540   26.7800   14.3840 H       1  UNL1        0.0626
     42  H         29.0170   25.0700   14.2510 H       1  UNL1        0.0693
     43  H         30.0500   28.7040   16.7610 H       1  UNL1        0.0696
     44  H         25.5350   27.4700   16.2730 H       1  UNL1        0.0606
     45  H         26.5560   26.7070   17.3610 H       1  UNL1        0.0606
     46  H         21.7240   24.4820   20.4120 H       1  UNL1        0.0640
     47  H         23.6000   22.9840   21.4300 H       1  UNL1        0.0618
     48  H         25.7750   23.3430   20.9470 H       1  UNL1        0.0618
     49  H         26.5460   25.3010   19.3910 H       1  UNL1        0.0639
@<TRIPOS>BOND
     1     1    31    1
     2     1    32    1
     3     1     2    1
     4     1    33    1
     5     2     4    2
     6     2     3    2
     7     2     5    1
     8     5     6    1
     9     5    34    1
    10     6     7   ar
    11     6    11   ar
    12     7    35    1
    13     7     8   ar
    14     8    36    1
    15     8     9   ar
    16     9    12    1
    17     9    10   ar
    18    10    11   ar
    19    10    37    1
    20    11    38    1
    21    12    19   am
    22    12    13    1
    23    13    39    1
    24    13    40    1
    25    13    14    1
    26    14    15   ar
    27    14    18   ar
    28    15    41    1
    29    15    16   ar
    30    16    17   ar
    31    16    42    1
    32    17    18   ar
    33    18    43    1
    34    19    20    2
    35    19    21    1
    36    21    22    1
    37    21    44    1
    38    21    45    1
    39    22    23   ar
    40    22    30   ar
    41    23    24   ar
    42    24    25   ar
    43    25    26   ar
    44    25    30   ar
    45    26    46    1
    46    26    27   ar
    47    27    47    1
    48    27    28   ar
    49    28    29   ar
    50    28    48    1
    51    29    30   ar
    52    29    49    1
