@<TRIPOS>MOLECULE
/home/lqcapf-6/arquivos_joao/4D/Alinhamento/alinhadas2/Mol18_PAC_aligned.pdb
 51 55 0 0 0
SMALL
GASTEIGER

@<TRIPOS>ATOM
      1  C         32.5950   28.7700   26.7060 C.3     1  UNL1        0.0302
      2  N         31.9210   29.2390   25.5600 N.ar    1  UNL1       -0.2739
      3  C         30.9870   28.5150   24.8490 C.ar    1  UNL1        0.0329
      4  C         30.5360   29.4840   23.9650 C.ar    1  UNL1        0.0196
      5  C         31.1270   30.7400   24.2560 C.ar    1  UNL1        0.0571
      6  N         32.0780   30.5250   25.1390 N.ar    1  UNL1       -0.1793
      7  C         29.6260   29.2400   22.8660 C.ar    1  UNL1       -0.0148
      8  C         28.8220   28.0460   22.8250 C.ar    1  UNL1       -0.0522
      9  C         27.8660   27.8630   21.7260 C.ar    1  UNL1       -0.0397
     10  C         27.7830   28.8450   20.7030 C.ar    1  UNL1        0.0367
     11  C         28.5890   29.9210   20.7050 C.ar    1  UNL1       -0.0397
     12  C         29.6150   30.0290   21.7000 C.ar    1  UNL1       -0.0522
     13  N         26.6870   28.7530   19.7420 N.am    1  UNL1       -0.2656
     14  C         25.4990   29.5790   20.0820 C.3     1  UNL1        0.0454
     15  C         24.7340   29.2120   21.3260 C.ar    1  UNL1       -0.0227
     16  C         23.4970   28.5170   21.2660 C.ar    1  UNL1       -0.0500
     17  C         22.9470   28.2470   22.4850 C.ar    1  UNL1       -0.0240
     18  S         23.9750   28.9650   23.7780 S.2     1  UNL1       -0.1047
     19  C         25.1060   29.5530   22.5760 C.ar    1  UNL1       -0.0196
     20  C         26.8090   27.8880   18.6850 C.2     1  UNL1        0.2416
     21  O         27.8150   27.1380   18.4730 O.2     1  UNL1       -0.2732
     22  C         25.6430   27.7650   17.6820 C.3     1  UNL1        0.1204
     23  N         24.5400   26.8590   18.0440 N.ar    1  UNL1       -0.2351
     24  N         23.2040   27.2040   17.8830 N.ar    1  UNL1       -0.0641
     25  N         22.4050   26.3820   18.5170 N.ar    1  UNL1       -0.1295
     26  C         23.2080   25.5520   19.2200 C.ar    1  UNL1        0.1127
     27  C         22.7400   24.5040   19.9970 C.ar    1  UNL1       -0.0324
     28  C         23.7300   23.7410   20.6080 C.ar    1  UNL1       -0.0596
     29  C         25.0600   24.1180   20.5510 C.ar    1  UNL1       -0.0596
     30  C         25.5060   25.1070   19.6710 C.ar    1  UNL1       -0.0345
     31  C         24.5470   25.7550   18.9020 C.ar    1  UNL1        0.0895
     32  H         33.6050   29.1970   26.6720 H       1  UNL1        0.0473
     33  H         32.1780   29.3420   27.5440 H       1  UNL1        0.0473
     34  H         32.4610   27.6890   26.8400 H       1  UNL1        0.0473
     35  H         30.8520   27.4620   25.0610 H       1  UNL1        0.0832
     36  H         31.0050   31.6650   23.7060 H       1  UNL1        0.0854
     37  H         28.8100   27.2730   23.5870 H       1  UNL1        0.0624
     38  H         27.2010   27.0050   21.7050 H       1  UNL1        0.0636
     39  H         28.4480   30.6970   19.9570 H       1  UNL1        0.0636
     40  H         30.2170   30.9320   21.6980 H       1  UNL1        0.0624
     41  H         25.8220   30.6140   20.2480 H       1  UNL1        0.0518
     42  H         24.7620   29.6780   19.2750 H       1  UNL1        0.0518
     43  H         23.0330   28.2490   20.3240 H       1  UNL1        0.0626
     44  H         21.9940   27.7930   22.7240 H       1  UNL1        0.0693
     45  H         25.9900   30.0820   22.9100 H       1  UNL1        0.0696
     46  H         25.2660   28.7580   17.4070 H       1  UNL1        0.0606
     47  H         26.0210   27.2680   16.7790 H       1  UNL1        0.0606
     48  H         21.6800   24.3340   20.1630 H       1  UNL1        0.0640
     49  H         23.4260   22.8920   21.2120 H       1  UNL1        0.0618
     50  H         25.8140   23.5410   21.0780 H       1  UNL1        0.0618
     51  H         26.5500   25.3810   19.5560 H       1  UNL1        0.0639
@<TRIPOS>BOND
     1     1    33    1
     2     1    32    1
     3     1    34    1
     4     1     2    1
     5     2     6   ar
     6     2     3   ar
     7     3    35    1
     8     3     4   ar
     9     4     5   ar
    10     4     7    1
    11     5     6   ar
    12     5    36    1
    13     7     8   ar
    14     7    12   ar
    15     8    37    1
    16     8     9   ar
    17     9    38    1
    18     9    10   ar
    19    10    11   ar
    20    10    13    1
    21    11    12   ar
    22    11    39    1
    23    12    40    1
    24    13    14    1
    25    13    20   am
    26    14    15    1
    27    14    41    1
    28    14    42    1
    29    15    19   ar
    30    15    16   ar
    31    16    17   ar
    32    16    43    1
    33    17    18   ar
    34    17    44    1
    35    18    19   ar
    36    19    45    1
    37    20    21    2
    38    20    22    1
    39    22    23    1
    40    22    46    1
    41    22    47    1
    42    23    31   ar
    43    23    24   ar
    44    24    25   ar
    45    25    26   ar
    46    26    27   ar
    47    26    31   ar
    48    27    28   ar
    49    27    48    1
    50    28    49    1
    51    28    29   ar
    52    29    50    1
    53    29    30   ar
    54    30    51    1
    55    30    31   ar
