@<TRIPOS>MOLECULE
/home/lqcapf-6/arquivos_joao/4D/Alinhamento/alinhadas2/Mol14_PAC_aligned.pdb
 50 54 0 0 0
SMALL
GASTEIGER

@<TRIPOS>ATOM
      1  O         25.7560   29.0020   19.4880 O.2     1  UNL1       -0.2732
      2  C         26.2310   28.6220   18.4470 C.2     1  UNL1        0.2416
      3  C         25.7010   27.4190   17.6420 C.3     1  UNL1        0.1204
      4  N         24.5190   26.8840   18.2130 N.ar    1  UNL1       -0.2351
      5  N         23.2750   27.2830   17.8410 N.ar    1  UNL1       -0.0641
      6  N         22.4430   26.3900   18.3820 N.ar    1  UNL1       -0.1295
      7  C         23.1380   25.5050   19.1850 C.ar    1  UNL1        0.1127
      8  C         22.7840   24.4150   19.9050 C.ar    1  UNL1       -0.0324
      9  C         23.7580   23.7370   20.6610 C.ar    1  UNL1       -0.0596
     10  C         25.1160   24.0750   20.5100 C.ar    1  UNL1       -0.0596
     11  C         25.4650   25.1300   19.6480 C.ar    1  UNL1       -0.0345
     12  C         24.4420   25.8020   19.0490 C.ar    1  UNL1        0.0895
     13  N         27.3400   29.3340   17.9070 N.am    1  UNL1       -0.2656
     14  C         27.8760   28.9950   16.6030 C.3     1  UNL1        0.0454
     15  C         28.6490   27.6710   16.6730 C.ar    1  UNL1       -0.0227
     16  C         28.6130   26.6320   15.7250 C.ar    1  UNL1       -0.0500
     17  C         29.6070   25.6690   15.9700 C.ar    1  UNL1       -0.0240
     18  S         30.5960   26.1510   17.3010 S.2     1  UNL1       -0.1047
     19  C         29.5860   27.5550   17.5820 C.ar    1  UNL1       -0.0196
     20  C         28.0020   30.3800   18.6430 C.ar    1  UNL1        0.0367
     21  C         28.0610   31.7110   18.1470 C.ar    1  UNL1       -0.0397
     22  C         28.5840   32.7900   18.9650 C.ar    1  UNL1       -0.0523
     23  C         28.9830   32.4410   20.2810 C.ar    1  UNL1       -0.0177
     24  C         28.8890   31.1080   20.7260 C.ar    1  UNL1       -0.0523
     25  C         28.4210   30.0900   19.9480 C.ar    1  UNL1       -0.0397
     26  C         29.7780   33.4260   21.0990 C.ar    1  UNL1       -0.0150
     27  C         30.2900   34.5380   20.5050 C.ar    1  UNL1       -0.0359
     28  C         30.9950   35.4850   21.2120 C.ar    1  UNL1        0.0281
     29  N         31.2490   35.3520   22.5290 N.ar    1  UNL1       -0.2632
     30  C         30.8270   34.2630   23.2000 C.ar    1  UNL1        0.0281
     31  C         30.0560   33.3490   22.5700 C.ar    1  UNL1       -0.0359
     32  H         25.3900   27.4940   16.5930 H       1  UNL1        0.0606
     33  H         26.5030   26.6720   17.6670 H       1  UNL1        0.0606
     34  H         21.7940   23.9700   19.8780 H       1  UNL1        0.0640
     35  H         23.4750   22.8870   21.2750 H       1  UNL1        0.0618
     36  H         25.9240   23.5290   20.9860 H       1  UNL1        0.0618
     37  H         26.4970   25.4430   19.5170 H       1  UNL1        0.0639
     38  H         27.0090   28.7860   15.9650 H       1  UNL1        0.0518
     39  H         28.3980   29.8930   16.2500 H       1  UNL1        0.0518
     40  H         27.7790   26.6010   15.0320 H       1  UNL1        0.0626
     41  H         29.8070   24.7470   15.4420 H       1  UNL1        0.0693
     42  H         29.8600   28.2330   18.3800 H       1  UNL1        0.0696
     43  H         27.5550   31.9840   17.2250 H       1  UNL1        0.0636
     44  H         28.7090   33.7440   18.4620 H       1  UNL1        0.0624
     45  H         29.2860   30.8450   21.7020 H       1  UNL1        0.0624
     46  H         28.3740   29.0850   20.3580 H       1  UNL1        0.0636
     47  H         30.3480   34.7510   19.4410 H       1  UNL1        0.0639
     48  H         31.2840   36.4210   20.7370 H       1  UNL1        0.0830
     49  H         31.0710   34.2370   24.2610 H       1  UNL1        0.0830
     50  H         29.5680   32.5490   23.1190 H       1  UNL1        0.0639
@<TRIPOS>BOND
     1     1     2    2
     2     2    13   am
     3     2     3    1
     4     3    32    1
     5     3    33    1
     6     3     4    1
     7     4     5   ar
     8     4    12   ar
     9     5     6   ar
    10     6     7   ar
    11     7    12   ar
    12     7     8   ar
    13     8    34    1
    14     8     9   ar
    15     9    10   ar
    16     9    35    1
    17    10    11   ar
    18    10    36    1
    19    11    12   ar
    20    11    37    1
    21    13    20    1
    22    13    14    1
    23    14    39    1
    24    14    38    1
    25    14    15    1
    26    15    19   ar
    27    15    16   ar
    28    16    40    1
    29    16    17   ar
    30    17    18   ar
    31    17    41    1
    32    18    19   ar
    33    19    42    1
    34    20    21   ar
    35    20    25   ar
    36    21    22   ar
    37    21    43    1
    38    22    44    1
    39    22    23   ar
    40    23    26    1
    41    23    24   ar
    42    24    25   ar
    43    24    45    1
    44    25    46    1
    45    26    27   ar
    46    26    31   ar
    47    27    47    1
    48    27    28   ar
    49    28    48    1
    50    28    29   ar
    51    29    30   ar
    52    30    49    1
    53    30    31   ar
    54    31    50    1
