@<TRIPOS>MOLECULE
/home/lqcapf-6/arquivos_joao/4D/Alinhamento/alinhadas2/Mol17_PAC_aligned.pdb
 48 52 0 0 0
SMALL
GASTEIGER

@<TRIPOS>ATOM
      1  S         23.8130   26.0510   11.5700 S.2     1  UNL1       -0.1032
      2  C         24.7990   24.6540   11.8470 C.ar    1  UNL1       -0.0225
      3  C         24.1720   26.6160   13.2000 C.ar    1  UNL1       -0.0025
      4  C         25.2990   24.5760   13.1360 C.ar    1  UNL1       -0.0329
      5  C         24.9410   25.7550   13.9600 C.ar    1  UNL1        0.0483
      6  N         25.4330   25.8760   15.2820 N.am    1  UNL1       -0.2383
      7  C         25.9740   21.9130   16.8910 C.ar    1  UNL1       -0.0126
      8  C         24.7030   22.5160   16.7370 C.ar    1  UNL1       -0.0521
      9  C         27.0780   22.7510   16.7140 C.ar    1  UNL1       -0.0521
     10  C         24.5300   23.7760   16.1910 C.ar    1  UNL1       -0.0393
     11  C         26.8920   24.0610   16.2300 C.ar    1  UNL1       -0.0393
     12  C         25.6630   24.6240   15.9450 C.ar    1  UNL1        0.0414
     13  C         25.5710   27.1490   15.8410 C.2     1  UNL1        0.2457
     14  C         25.6820   27.2500   17.3160 C.3     1  UNL1        0.1207
     15  O         25.7060   28.2050   15.2150 O.2     1  UNL1       -0.2729
     16  C         24.5420   25.6900   18.9410 C.ar    1  UNL1        0.0895
     17  N         24.5360   26.7180   18.0290 N.ar    1  UNL1       -0.2351
     18  C         23.1590   25.5760   19.1420 C.ar    1  UNL1        0.1127
     19  N         23.2680   27.1920   17.8120 N.ar    1  UNL1       -0.0641
     20  N         22.3690   26.5360   18.5840 N.ar    1  UNL1       -0.1295
     21  C         25.5480   25.0420   19.6220 C.ar    1  UNL1       -0.0345
     22  C         25.0950   24.1140   20.5540 C.ar    1  UNL1       -0.0596
     23  C         22.7290   24.5490   20.0240 C.ar    1  UNL1       -0.0324
     24  C         23.6920   23.8030   20.6860 C.ar    1  UNL1       -0.0596
     25  C         26.4630   17.7970   17.9170 C.ar    1  UNL1        0.0050
     26  N         25.7470   18.6270   18.7730 N.ar    1  UNL1       -0.3286
     27  C         27.1860   18.4470   16.8530 C.ar    1  UNL1       -0.0449
     28  C         25.4530   19.9390   18.5540 C.ar    1  UNL1        0.2565
     29  C         27.0090   19.8080   16.6270 C.ar    1  UNL1       -0.0475
     30  C         26.1800   20.5430   17.4550 C.ar    1  UNL1        0.0465
     31  O         24.7420   20.5950   19.2530 O.2     1  UNL1       -0.2672
     32  H         25.0340   24.0610   10.9740 H       1  UNL1        0.0694
     33  H         23.6810   27.4950   13.5940 H       1  UNL1        0.0712
     34  H         25.9330   23.7820   13.5140 H       1  UNL1        0.0642
     35  H         23.7850   21.9470   16.8560 H       1  UNL1        0.0624
     36  H         28.0900   22.3800   16.8460 H       1  UNL1        0.0624
     37  H         23.4860   24.0700   16.1490 H       1  UNL1        0.0636
     38  H         27.8130   24.6270   16.1200 H       1  UNL1        0.0636
     39  H         26.5420   26.6460   17.6320 H       1  UNL1        0.0606
     40  H         25.7580   28.3050   17.6030 H       1  UNL1        0.0606
     41  H         26.6030   25.2600   19.4840 H       1  UNL1        0.0639
     42  H         25.8420   23.5460   21.1010 H       1  UNL1        0.0618
     43  H         21.6660   24.3400   20.0890 H       1  UNL1        0.0640
     44  H         23.4050   22.9470   21.2900 H       1  UNL1        0.0618
     45  H         26.4230   16.7530   18.1960 H       1  UNL1        0.0808
     46  H         25.3900   18.1570   19.5960 H       1  UNL1        0.1683
     47  H         27.8850   17.9220   16.2120 H       1  UNL1        0.0632
     48  H         27.4750   20.1800   15.7230 H       1  UNL1        0.0626
@<TRIPOS>BOND
     1     1     2   ar
     2     1     3   ar
     3     2    32    1
     4     2     4   ar
     5     3    33    1
     6     3     5   ar
     7     4    34    1
     8     4     5   ar
     9     5     6    1
    10     6    12    1
    11     6    13   am
    12     7     8   ar
    13     7     9   ar
    14     7    30    1
    15     8    10   ar
    16     8    35    1
    17     9    11   ar
    18     9    36    1
    19    10    37    1
    20    10    12   ar
    21    11    12   ar
    22    11    38    1
    23    13    15    2
    24    13    14    1
    25    14    17    1
    26    14    40    1
    27    14    39    1
    28    16    17   ar
    29    16    18   ar
    30    16    21   ar
    31    17    19   ar
    32    18    20   ar
    33    18    23   ar
    34    19    20   ar
    35    21    41    1
    36    21    22   ar
    37    22    24   ar
    38    22    42    1
    39    23    43    1
    40    23    24   ar
    41    24    44    1
    42    25    27   ar
    43    25    45    1
    44    25    26   ar
    45    26    28   ar
    46    26    46    1
    47    27    47    1
    48    27    29   ar
    49    28    30   ar
    50    28    31    2
    51    29    48    1
    52    29    30   ar
