@<TRIPOS>MOLECULE
/home/lqcapf-6/arquivos_joao/4D/Alinhamento/alinhadas2/Mol22_PAC_aligned.pdb
 55 58 0 0 0
SMALL
GASTEIGER

@<TRIPOS>ATOM
      1  C         29.1360   27.5920   14.0140 C.3     1  UNL1       -0.0626
      2  C         30.1400   27.6320   15.1620 C.3     1  UNL1       -0.0453
      3  C         31.2410   26.6400   14.9980 C.3     1  UNL1       -0.0626
      4  C         29.4640   27.3530   16.5120 C.3     1  UNL1       -0.0344
      5  C         28.5440   28.5100   16.9460 C.3     1  UNL1        0.0201
      6  N         27.9180   28.4820   18.3000 N.am    1  UNL1       -0.2699
      7  C         26.5730   28.2330   18.6110 C.2     1  UNL1        0.2413
      8  O         26.0610   28.6550   19.6960 O.2     1  UNL1       -0.2732
      9  C         25.7400   27.4270   17.6120 C.3     1  UNL1        0.1204
     10  N         24.5140   26.8550   18.1860 N.ar    1  UNL1       -0.2351
     11  N         23.2720   27.1910   17.8410 N.ar    1  UNL1       -0.0641
     12  N         22.4740   26.3650   18.4160 N.ar    1  UNL1       -0.1295
     13  C         23.1780   25.5380   19.1880 C.ar    1  UNL1        0.1127
     14  C         22.7050   24.4980   19.9680 C.ar    1  UNL1       -0.0324
     15  C         23.6760   23.7370   20.6680 C.ar    1  UNL1       -0.0596
     16  C         25.1020   24.0790   20.4480 C.ar    1  UNL1       -0.0596
     17  C         25.5230   25.1020   19.6240 C.ar    1  UNL1       -0.0345
     18  C         24.4940   25.8560   19.0550 C.ar    1  UNL1        0.0895
     19  C         28.8590   28.5650   19.3300 C.ar    1  UNL1        0.0363
     20  C         29.1250   27.3750   20.0560 C.ar    1  UNL1       -0.0397
     21  C         30.0630   27.3310   21.0810 C.ar    1  UNL1       -0.0522
     22  C         30.8790   28.4540   21.3520 C.ar    1  UNL1       -0.0163
     23  C         30.5020   29.6620   20.7070 C.ar    1  UNL1       -0.0522
     24  C         29.5010   29.7110   19.7650 C.ar    1  UNL1       -0.0397
     25  C         32.0750   28.4190   22.2110 C.ar    1  UNL1        0.0002
     26  C         32.8200   27.1970   22.2630 C.ar    1  UNL1       -0.0512
     27  C         34.1350   27.3200   22.8190 C.ar    1  UNL1       -0.0430
     28  C         34.5750   28.5620   23.3960 C.ar    1  UNL1        0.0276
     29  N         33.7820   29.6280   23.3890 N.ar    1  UNL1       -0.2627
     30  C         32.5560   29.5480   22.8710 C.ar    1  UNL1        0.0352
     31  H         28.8880   26.5460   13.7960 H       1  UNL1        0.0232
     32  H         28.1730   28.0780   14.2140 H       1  UNL1        0.0232
     33  H         29.5950   27.8460   13.0500 H       1  UNL1        0.0232
     34  H         30.5950   28.6300   15.1920 H       1  UNL1        0.0296
     35  H         30.8630   25.6250   15.1730 H       1  UNL1        0.0232
     36  H         31.7610   26.6090   14.0330 H       1  UNL1        0.0232
     37  H         32.0170   26.8220   15.7520 H       1  UNL1        0.0232
     38  H         29.0080   26.3560   16.5070 H       1  UNL1        0.0283
     39  H         30.2230   27.3130   17.3030 H       1  UNL1        0.0283
     40  H         28.9890   29.4850   16.7100 H       1  UNL1        0.0469
     41  H         27.6810   28.6600   16.2860 H       1  UNL1        0.0469
     42  H         25.4360   28.0260   16.7450 H       1  UNL1        0.0606
     43  H         26.2960   26.5660   17.2190 H       1  UNL1        0.0606
     44  H         21.6350   24.3940   20.1120 H       1  UNL1        0.0640
     45  H         23.3970   22.9770   21.3910 H       1  UNL1        0.0618
     46  H         25.8380   23.5270   21.0260 H       1  UNL1        0.0618
     47  H         26.5800   25.3540   19.6360 H       1  UNL1        0.0639
     48  H         28.4500   26.5300   19.9600 H       1  UNL1        0.0636
     49  H         30.3390   26.4310   21.6220 H       1  UNL1        0.0624
     50  H         31.0380   30.5980   20.8450 H       1  UNL1        0.0624
     51  H         29.1850   30.7000   19.4480 H       1  UNL1        0.0636
     52  H         32.5490   26.3060   21.7030 H       1  UNL1        0.0625
     53  H         34.7500   26.4280   22.7520 H       1  UNL1        0.0633
     54  H         35.6400   28.6720   23.6010 H       1  UNL1        0.0829
     55  H         31.9300   30.4360   22.9440 H       1  UNL1        0.0836
@<TRIPOS>BOND
     1     1     2    1
     2     1    33    1
     3     1    31    1
     4     1    32    1
     5     2     3    1
     6     2    34    1
     7     2     4    1
     8     3    37    1
     9     3    36    1
    10     3    35    1
    11     4    39    1
    12     4    38    1
    13     4     5    1
    14     5    40    1
    15     5     6    1
    16     5    41    1
    17     6    19    1
    18     6     7   am
    19     7     9    1
    20     7     8    2
    21     9    43    1
    22     9    42    1
    23     9    10    1
    24    10    18   ar
    25    10    11   ar
    26    11    12   ar
    27    12    13   ar
    28    13    18   ar
    29    13    14   ar
    30    14    15   ar
    31    14    44    1
    32    15    16   ar
    33    15    45    1
    34    16    46    1
    35    16    17   ar
    36    17    47    1
    37    17    18   ar
    38    19    24   ar
    39    19    20   ar
    40    20    21   ar
    41    20    48    1
    42    21    22   ar
    43    21    49    1
    44    22    25    1
    45    22    23   ar
    46    23    50    1
    47    23    24   ar
    48    24    51    1
    49    25    26   ar
    50    25    30   ar
    51    26    27   ar
    52    26    52    1
    53    27    53    1
    54    27    28   ar
    55    28    54    1
    56    28    29   ar
    57    29    30   ar
    58    30    55    1
