@<TRIPOS>MOLECULE
/home/lqcapf-6/arquivos_joao/4D/Alinhamento/alinhadas2/Mol23_PAC_aligned.pdb
 50 54 0 0 0
SMALL
GASTEIGER

@<TRIPOS>ATOM
      1  O         25.3290   30.0560   17.4400 O.2     1  UNL1       -0.2732
      2  C         25.8690   29.1490   18.1300 C.2     1  UNL1        0.2413
      3  C         25.6880   27.6510   17.7030 C.3     1  UNL1        0.1204
      4  N         24.5380   26.9160   18.2220 N.ar    1  UNL1       -0.2351
      5  N         23.2760   27.1940   17.7870 N.ar    1  UNL1       -0.0641
      6  N         22.4160   26.3770   18.4290 N.ar    1  UNL1       -0.1295
      7  C         23.1540   25.5460   19.1330 C.ar    1  UNL1        0.1127
      8  C         22.7510   24.5130   20.0440 C.ar    1  UNL1       -0.0324
      9  C         23.7270   23.6600   20.6160 C.ar    1  UNL1       -0.0596
     10  C         25.0580   24.0120   20.4810 C.ar    1  UNL1       -0.0596
     11  C         25.4960   25.1540   19.6990 C.ar    1  UNL1       -0.0345
     12  C         24.5230   25.8500   18.9830 C.ar    1  UNL1        0.0895
     13  N         26.5920   29.4880   19.3200 N.am    1  UNL1       -0.2696
     14  C         26.6990   28.6350   20.4550 C.3     1  UNL1        0.0227
     15  C         25.3990   28.5580   21.2420 C.3     1  UNL1       -0.0248
     16  C         25.4800   27.6960   22.4450 C.3     1  UNL1       -0.0485
     17  C         25.0690   29.1200   22.5800 C.3     1  UNL1       -0.0485
     18  C         27.1920   30.7760   19.4380 C.ar    1  UNL1        0.0364
     19  C         26.7740   31.7820   20.3070 C.ar    1  UNL1       -0.0397
     20  C         27.3840   33.0180   20.3650 C.ar    1  UNL1       -0.0522
     21  C         28.4050   33.3760   19.5040 C.ar    1  UNL1       -0.0163
     22  C         28.9720   32.2840   18.7890 C.ar    1  UNL1       -0.0522
     23  C         28.3300   31.0550   18.6750 C.ar    1  UNL1       -0.0397
     24  C         29.1020   34.7380   19.5160 C.ar    1  UNL1        0.0002
     25  C         29.1380   35.5770   20.7120 C.ar    1  UNL1       -0.0512
     26  C         29.8330   36.7850   20.7210 C.ar    1  UNL1       -0.0430
     27  C         30.5690   37.2150   19.5600 C.ar    1  UNL1        0.0276
     28  N         30.3840   36.5320   18.4420 N.ar    1  UNL1       -0.2627
     29  C         29.7240   35.3040   18.4400 C.ar    1  UNL1        0.0352
     30  H         25.7420   27.5910   16.6090 H       1  UNL1        0.0606
     31  H         26.6180   27.1050   17.9020 H       1  UNL1        0.0606
     32  H         21.7010   24.2400   20.1010 H       1  UNL1        0.0640
     33  H         23.4520   22.8230   21.2520 H       1  UNL1        0.0618
     34  H         25.6880   23.3400   21.0560 H       1  UNL1        0.0618
     35  H         26.5480   25.4240   19.7060 H       1  UNL1        0.0639
     36  H         27.0610   27.6190   20.2570 H       1  UNL1        0.0471
     37  H         27.4760   29.1390   21.0440 H       1  UNL1        0.0471
     38  H         24.5010   28.4690   20.6350 H       1  UNL1        0.0316
     39  H         24.6150   27.0820   22.6830 H       1  UNL1        0.0269
     40  H         26.4560   27.4370   22.8470 H       1  UNL1        0.0269
     41  H         25.8790   29.6980   23.0170 H       1  UNL1        0.0269
     42  H         24.0790   29.2110   23.0200 H       1  UNL1        0.0269
     43  H         25.9570   31.5110   20.9680 H       1  UNL1        0.0636
     44  H         27.0240   33.8500   20.9630 H       1  UNL1        0.0624
     45  H         29.8510   32.4390   18.1700 H       1  UNL1        0.0624
     46  H         28.8250   30.3330   18.0310 H       1  UNL1        0.0636
     47  H         28.5810   35.2240   21.5750 H       1  UNL1        0.0625
     48  H         29.9310   37.4250   21.5930 H       1  UNL1        0.0633
     49  H         31.2360   38.0750   19.5340 H       1  UNL1        0.0829
     50  H         29.6140   34.8510   17.4560 H       1  UNL1        0.0836
@<TRIPOS>BOND
     1     1     2    2
     2     2     3    1
     3     2    13   am
     4     3     4    1
     5     3    30    1
     6     3    31    1
     7     4     5   ar
     8     4    12   ar
     9     5     6   ar
    10     6     7   ar
    11     7     8   ar
    12     7    12   ar
    13     8    32    1
    14     8     9   ar
    15     9    33    1
    16     9    10   ar
    17    10    34    1
    18    10    11   ar
    19    11    12   ar
    20    11    35    1
    21    13    14    1
    22    13    18    1
    23    14    36    1
    24    14    15    1
    25    14    37    1
    26    15    38    1
    27    15    16    1
    28    15    17    1
    29    16    39    1
    30    16    40    1
    31    16    17    1
    32    17    42    1
    33    17    41    1
    34    18    23   ar
    35    18    19   ar
    36    19    43    1
    37    19    20   ar
    38    20    21   ar
    39    20    44    1
    40    21    22   ar
    41    21    24    1
    42    22    23   ar
    43    22    45    1
    44    23    46    1
    45    24    29   ar
    46    24    25   ar
    47    25    47    1
    48    25    26   ar
    49    26    27   ar
    50    26    48    1
    51    27    28   ar
    52    27    49    1
    53    28    29   ar
    54    29    50    1
