@<TRIPOS>MOLECULE
/home/lqcapf-6/arquivos_joao/4D/Alinhamento/alinhadas2/Mol26_PAC_aligned.pdb
 54 58 0 0 0
SMALL
GASTEIGER

@<TRIPOS>ATOM
      1  O         26.0060   28.2800   20.2860 O.2     1  UNL1       -0.2735
      2  C         26.4510   28.2940   19.1190 C.2     1  UNL1        0.2387
      3  C         25.7920   27.5800   17.9240 C.3     1  UNL1        0.1081
      4  N         24.5450   26.8940   18.2950 N.pl3   1  UNL1       -0.2199
      5  N         23.3200   27.1500   17.7260 N.3     1  UNL1       -0.0148
      6  N         22.4150   26.4210   18.3620 N.pl3   1  UNL1       -0.1285
      7  C         23.1250   25.5260   19.1590 C.ar    1  UNL1        0.0926
      8  C         22.7040   24.5290   20.0610 C.ar    1  UNL1       -0.0356
      9  C         23.7030   23.7530   20.6400 C.ar    1  UNL1       -0.0598
     10  C         25.1170   23.9900   20.3460 C.ar    1  UNL1       -0.0599
     11  C         25.5300   25.1400   19.7090 C.ar    1  UNL1       -0.0374
     12  C         24.4790   25.8170   19.0940 C.ar    1  UNL1        0.0723
     13  N         27.5450   29.1520   18.8390 N.am    1  UNL1       -0.2697
     14  C         27.9480   29.4880   17.5100 C.3     1  UNL1        0.0248
     15  C         29.3070   30.2440   17.3570 C.3     1  UNL1        0.0007
     16  C         29.6680   30.6260   15.9130 C.3     1  UNL1       -0.0231
     17  C         31.1310   30.4160   15.9240 C.3     1  UNL1        0.0480
     18  O         31.3750   29.3730   16.8100 O.3     1  UNL1       -0.3794
     19  C         30.5350   29.5390   17.9370 C.3     1  UNL1        0.0520
     20  C         28.2190   29.7220   19.9570 C.ar    1  UNL1        0.0363
     21  C         27.9760   31.0350   20.3700 C.ar    1  UNL1       -0.0397
     22  C         28.6460   31.6100   21.4870 C.ar    1  UNL1       -0.0522
     23  C         29.6430   30.9370   22.1650 C.ar    1  UNL1       -0.0163
     24  C         29.9580   29.6000   21.7160 C.ar    1  UNL1       -0.0522
     25  C         29.2240   28.9940   20.6610 C.ar    1  UNL1       -0.0397
     26  C         30.3720   31.5850   23.3560 C.ar    1  UNL1        0.0002
     27  C         29.9070   32.7620   24.0230 C.ar    1  UNL1       -0.0512
     28  C         30.5720   33.2740   25.1690 C.ar    1  UNL1       -0.0430
     29  C         31.7570   32.6080   25.5320 C.ar    1  UNL1        0.0276
     30  N         32.2850   31.5500   24.8480 N.ar    1  UNL1       -0.2627
     31  C         31.6240   31.0790   23.7320 C.ar    1  UNL1        0.0352
     32  H         25.5620   28.3070   17.1350 H       1  UNL1        0.0576
     33  H         26.5680   26.8900   17.5740 H       1  UNL1        0.0576
     34  H         21.6450   24.3070   20.1520 H       1  UNL1        0.0638
     35  H         23.3750   22.8750   21.1890 H       1  UNL1        0.0618
     36  H         25.9010   23.3380   20.7210 H       1  UNL1        0.0618
     37  H         26.5580   25.3660   19.4440 H       1  UNL1        0.0637
     38  H         28.0600   28.6170   16.8540 H       1  UNL1        0.0472
     39  H         27.1560   30.0860   17.0420 H       1  UNL1        0.0472
     40  H         29.1600   31.2100   17.8550 H       1  UNL1        0.0339
     41  H         29.1930   29.9050   15.2350 H       1  UNL1        0.0291
     42  H         29.3310   31.6420   15.6730 H       1  UNL1        0.0291
     43  H         31.3730   30.2210   14.8730 H       1  UNL1        0.0560
     44  H         31.7010   31.2870   16.2700 H       1  UNL1        0.0560
     45  H         31.1080   30.0830   18.6980 H       1  UNL1        0.0563
     46  H         30.2010   28.5790   18.3480 H       1  UNL1        0.0563
     47  H         27.1760   31.5290   19.8250 H       1  UNL1        0.0636
     48  H         28.4500   32.6510   21.7250 H       1  UNL1        0.0624
     49  H         30.6940   29.0010   22.2450 H       1  UNL1        0.0624
     50  H         29.4930   27.9800   20.3830 H       1  UNL1        0.0636
     51  H         29.1180   33.4150   23.6600 H       1  UNL1        0.0625
     52  H         30.2590   34.1180   25.7770 H       1  UNL1        0.0633
     53  H         32.4090   32.8920   26.3570 H       1  UNL1        0.0829
     54  H         32.0710   30.1800   23.3100 H       1  UNL1        0.0836
@<TRIPOS>BOND
     1     1     2    2
     2     2     3    1
     3     2    13   am
     4     3    33    1
     5     3     4    1
     6     3    32    1
     7     4    12    1
     8     4     5    1
     9     5     6    1
    10     6     7    1
    11     7     8   ar
    12     7    12   ar
    13     8     9   ar
    14     8    34    1
    15     9    35    1
    16     9    10   ar
    17    10    36    1
    18    10    11   ar
    19    11    37    1
    20    11    12   ar
    21    13    20    1
    22    13    14    1
    23    14    38    1
    24    14    15    1
    25    14    39    1
    26    15    19    1
    27    15    16    1
    28    15    40    1
    29    16    41    1
    30    16    17    1
    31    16    42    1
    32    17    18    1
    33    17    43    1
    34    17    44    1
    35    18    19    1
    36    19    46    1
    37    19    45    1
    38    20    25   ar
    39    20    21   ar
    40    21    22   ar
    41    21    47    1
    42    22    23   ar
    43    22    48    1
    44    23    24   ar
    45    23    26    1
    46    24    49    1
    47    24    25   ar
    48    25    50    1
    49    26    31   ar
    50    26    27   ar
    51    27    28   ar
    52    27    51    1
    53    28    29   ar
    54    28    52    1
    55    29    30   ar
    56    29    53    1
    57    30    31   ar
    58    31    54    1
