@<TRIPOS>MOLECULE
/home/lqcapf-6/arquivos_joao/4D/Alinhamento/alinhadas2/Mol28_PAC_aligned.pdb
 53 57 0 0 0
SMALL
GASTEIGER

@<TRIPOS>ATOM
      1 CL         24.7830   35.2220   16.6950 Cl      1  UNL1       -0.0835
      2  C         24.5270   33.5360   17.0610 C.ar    1  UNL1        0.0413
      3  C         23.4100   33.0960   17.7680 C.ar    1  UNL1       -0.0434
      4  C         23.2270   31.7350   18.0230 C.ar    1  UNL1       -0.0601
      5  C         24.2550   30.8530   17.6380 C.ar    1  UNL1       -0.0570
      6  C         25.4390   31.2850   17.0030 C.ar    1  UNL1       -0.0283
      7  C         25.5690   32.6580   16.7050 C.ar    1  UNL1       -0.0387
      8  C         26.4550   30.3430   16.3930 C.3     1  UNL1        0.0449
      9  N         25.8630   29.1910   15.6840 N.am    1  UNL1       -0.2656
     10  C         25.6650   27.8920   16.2030 C.2     1  UNL1        0.2416
     11  O         25.1770   27.1240   15.3720 O.2     1  UNL1       -0.2732
     12  C         25.7440   27.5750   17.6750 C.3     1  UNL1        0.1204
     13  N         24.5200   26.8810   18.1730 N.ar    1  UNL1       -0.2351
     14  N         23.2330   27.1970   17.8390 N.ar    1  UNL1       -0.0641
     15  N         22.4060   26.3610   18.4460 N.ar    1  UNL1       -0.1295
     16  C         23.2020   25.5680   19.1280 C.ar    1  UNL1        0.1127
     17  C         22.7010   24.4800   19.9510 C.ar    1  UNL1       -0.0324
     18  C         23.6970   23.7600   20.6710 C.ar    1  UNL1       -0.0596
     19  C         25.0600   24.0350   20.4530 C.ar    1  UNL1       -0.0596
     20  C         25.5800   25.1030   19.6950 C.ar    1  UNL1       -0.0345
     21  C         24.5400   25.8350   19.0370 C.ar    1  UNL1        0.0895
     22  C         25.6500   29.4080   14.2780 C.ar    1  UNL1        0.0367
     23  C         26.5620   28.8840   13.2950 C.ar    1  UNL1       -0.0397
     24  C         26.2660   29.0440   11.9130 C.ar    1  UNL1       -0.0522
     25  C         25.1140   29.7810   11.5330 C.ar    1  UNL1       -0.0163
     26  C         24.1280   30.1480   12.4920 C.ar    1  UNL1       -0.0522
     27  C         24.4720   30.0040   13.8730 C.ar    1  UNL1       -0.0397
     28  C         24.8680   30.0940   10.0440 C.ar    1  UNL1        0.0002
     29  C         25.9360   30.1340    9.0760 C.ar    1  UNL1       -0.0512
     30  C         25.5760   30.3710    7.7480 C.ar    1  UNL1       -0.0430
     31  C         24.2150   30.5720    7.4380 C.ar    1  UNL1        0.0276
     32  N         23.2140   30.5950    8.2700 N.ar    1  UNL1       -0.2627
     33  C         23.5720   30.3490    9.6130 C.ar    1  UNL1        0.0352
     34  H         22.5550   33.7540   17.8980 H       1  UNL1        0.0632
     35  H         22.3870   31.4000   18.6240 H       1  UNL1        0.0618
     36  H         24.1140   29.8110   17.9080 H       1  UNL1        0.0621
     37  H         26.4020   33.0620   16.1360 H       1  UNL1        0.0635
     38  H         27.0910   30.8780   15.6770 H       1  UNL1        0.0518
     39  H         27.0790   29.9500   17.2040 H       1  UNL1        0.0518
     40  H         26.6110   26.9160   17.7980 H       1  UNL1        0.0606
     41  H         25.8350   28.5150   18.2320 H       1  UNL1        0.0606
     42  H         21.6340   24.3090   20.0580 H       1  UNL1        0.0640
     43  H         23.3630   22.9450   21.3060 H       1  UNL1        0.0618
     44  H         25.7950   23.4940   21.0430 H       1  UNL1        0.0618
     45  H         26.6260   25.3410   19.5220 H       1  UNL1        0.0639
     46  H         27.5320   28.4940   13.5890 H       1  UNL1        0.0636
     47  H         27.0570   28.7110   11.2490 H       1  UNL1        0.0624
     48  H         23.1670   30.5790   12.2270 H       1  UNL1        0.0624
     49  H         23.6770   30.2880   14.5550 H       1  UNL1        0.0636
     50  H         27.0000   30.0760    9.2840 H       1  UNL1        0.0625
     51  H         26.3190   30.3390    6.9580 H       1  UNL1        0.0633
     52  H         23.8910   30.6590    6.4020 H       1  UNL1        0.0829
     53  H         22.7500   30.3500   10.3280 H       1  UNL1        0.0836
@<TRIPOS>BOND
     1     1     2    1
     2     2     7   ar
     3     2     3   ar
     4     3     4   ar
     5     3    34    1
     6     4     5   ar
     7     4    35    1
     8     5    36    1
     9     5     6   ar
    10     6     8    1
    11     6     7   ar
    12     7    37    1
    13     8    39    1
    14     8     9    1
    15     8    38    1
    16     9    10   am
    17     9    22    1
    18    10    12    1
    19    10    11    2
    20    12    40    1
    21    12    13    1
    22    12    41    1
    23    13    21   ar
    24    13    14   ar
    25    14    15   ar
    26    15    16   ar
    27    16    17   ar
    28    16    21   ar
    29    17    18   ar
    30    17    42    1
    31    18    43    1
    32    18    19   ar
    33    19    44    1
    34    19    20   ar
    35    20    45    1
    36    20    21   ar
    37    22    23   ar
    38    22    27   ar
    39    23    46    1
    40    23    24   ar
    41    24    47    1
    42    24    25   ar
    43    25    26   ar
    44    25    28    1
    45    26    27   ar
    46    26    48    1
    47    27    49    1
    48    28    29   ar
    49    28    33   ar
    50    29    50    1
    51    29    30   ar
    52    30    51    1
    53    30    31   ar
    54    31    32   ar
    55    31    52    1
    56    32    33   ar
    57    33    53    1
