@<TRIPOS>MOLECULE
/home/lqcapf-6/arquivos_joao/4D/Alinhamento/alinhadas2/Mol25_PAC_aligned.pdb
 56 60 0 0 0
SMALL
GASTEIGER

@<TRIPOS>ATOM
      1  O         25.4330   29.5420   18.5980 O.2     1  UNL1       -0.2732
      2  C         26.1580   28.8320   17.8570 C.2     1  UNL1        0.2413
      3  C         25.7780   27.3690   17.5370 C.3     1  UNL1        0.1204
      4  N         24.5430   26.8920   18.1640 N.ar    1  UNL1       -0.2351
      5  N         23.2730   27.2260   17.8110 N.ar    1  UNL1       -0.0641
      6  N         22.4070   26.3730   18.3330 N.ar    1  UNL1       -0.1295
      7  C         23.1130   25.5790   19.1990 C.ar    1  UNL1        0.1127
      8  C         22.7270   24.5210   20.0300 C.ar    1  UNL1       -0.0324
      9  C         23.7730   23.7430   20.6590 C.ar    1  UNL1       -0.0596
     10  C         25.1490   23.9720   20.4620 C.ar    1  UNL1       -0.0596
     11  C         25.4720   25.0870   19.6790 C.ar    1  UNL1       -0.0345
     12  C         24.4820   25.8280   19.0570 C.ar    1  UNL1        0.0895
     13  N         27.2800   29.4410   17.1840 N.am    1  UNL1       -0.2696
     14  C         28.2510   28.5560   16.5120 C.3     1  UNL1        0.0227
     15  C         29.1750   27.7880   17.4930 C.3     1  UNL1       -0.0248
     16  C         29.9690   26.5820   16.9450 C.3     1  UNL1       -0.0488
     17  C         31.2920   26.4880   17.7900 C.3     1  UNL1       -0.0527
     18  C         31.5380   27.8150   18.5870 C.3     1  UNL1       -0.0527
     19  C         30.4320   28.6630   17.9590 C.3     1  UNL1       -0.0488
     20  C         27.6650   30.8550   17.3930 C.ar    1  UNL1        0.0364
     21  C         27.7600   31.8930   16.4430 C.ar    1  UNL1       -0.0397
     22  C         28.1080   33.1850   16.7890 C.ar    1  UNL1       -0.0522
     23  C         28.3240   33.6060   18.1250 C.ar    1  UNL1       -0.0163
     24  C         28.1800   32.6400   19.0730 C.ar    1  UNL1       -0.0522
     25  C         27.8390   31.3060   18.7330 C.ar    1  UNL1       -0.0397
     26  C         28.8290   34.9810   18.3850 C.ar    1  UNL1        0.0002
     27  C         28.8130   35.9820   17.3870 C.ar    1  UNL1       -0.0512
     28  C         29.3240   37.2360   17.6950 C.ar    1  UNL1       -0.0430
     29  C         29.6610   37.4760   19.0070 C.ar    1  UNL1        0.0276
     30  N         29.6890   36.5450   19.9770 N.ar    1  UNL1       -0.2627
     31  C         29.2240   35.3200   19.6460 C.ar    1  UNL1        0.0352
     32  H         25.7080   27.2170   16.4530 H       1  UNL1        0.0606
     33  H         26.5670   26.6900   17.8820 H       1  UNL1        0.0606
     34  H         21.6990   24.2040   20.1790 H       1  UNL1        0.0640
     35  H         23.5200   22.9270   21.3290 H       1  UNL1        0.0618
     36  H         25.8750   23.2940   20.8990 H       1  UNL1        0.0618
     37  H         26.5270   25.3320   19.6040 H       1  UNL1        0.0639
     38  H         27.6830   27.7960   15.9600 H       1  UNL1        0.0471
     39  H         28.8050   29.2360   15.8530 H       1  UNL1        0.0471
     40  H         28.6110   27.4710   18.3800 H       1  UNL1        0.0316
     41  H         29.4180   25.6480   17.1050 H       1  UNL1        0.0268
     42  H         30.1840   26.6550   15.8710 H       1  UNL1        0.0268
     43  H         31.1530   25.7770   18.6140 H       1  UNL1        0.0265
     44  H         32.1440   26.2220   17.1520 H       1  UNL1        0.0265
     45  H         31.5190   27.6890   19.6760 H       1  UNL1        0.0265
     46  H         32.5430   28.1010   18.2530 H       1  UNL1        0.0265
     47  H         30.8990   29.1030   17.0690 H       1  UNL1        0.0268
     48  H         30.1840   29.4680   18.6600 H       1  UNL1        0.0268
     49  H         27.6300   31.7390   15.3760 H       1  UNL1        0.0636
     50  H         28.1460   33.8540   15.9350 H       1  UNL1        0.0624
     51  H         28.3470   32.8670   20.1220 H       1  UNL1        0.0624
     52  H         27.7500   30.6260   19.5750 H       1  UNL1        0.0636
     53  H         28.4380   35.7540   16.3940 H       1  UNL1        0.0625
     54  H         29.5200   37.9730   16.9220 H       1  UNL1        0.0633
     55  H         30.1420   38.4110   19.2930 H       1  UNL1        0.0829
     56  H         29.2100   34.6700   20.5200 H       1  UNL1        0.0836
@<TRIPOS>BOND
     1     1     2    2
     2     2    13   am
     3     2     3    1
     4     3     4    1
     5     3    33    1
     6     3    32    1
     7     4    12   ar
     8     4     5   ar
     9     5     6   ar
    10     6     7   ar
    11     7     8   ar
    12     7    12   ar
    13     8    34    1
    14     8     9   ar
    15     9    35    1
    16     9    10   ar
    17    10    11   ar
    18    10    36    1
    19    11    37    1
    20    11    12   ar
    21    13    20    1
    22    13    14    1
    23    14    15    1
    24    14    39    1
    25    14    38    1
    26    15    19    1
    27    15    40    1
    28    15    16    1
    29    16    17    1
    30    16    41    1
    31    16    42    1
    32    17    18    1
    33    17    43    1
    34    17    44    1
    35    18    45    1
    36    18    19    1
    37    18    46    1
    38    19    48    1
    39    19    47    1
    40    20    25   ar
    41    20    21   ar
    42    21    22   ar
    43    21    49    1
    44    22    23   ar
    45    22    50    1
    46    23    26    1
    47    23    24   ar
    48    24    51    1
    49    24    25   ar
    50    25    52    1
    51    26    31   ar
    52    26    27   ar
    53    27    28   ar
    54    27    53    1
    55    28    29   ar
    56    28    54    1
    57    29    55    1
    58    29    30   ar
    59    30    31   ar
    60    31    56    1
