@<TRIPOS>MOLECULE
/home/lqcapf-6/arquivos_joao/4D/Alinhamento/alinhadas2/Mol20_PAC_aligned.pdb
 51 55 0 0 0
SMALL
GASTEIGER

@<TRIPOS>ATOM
      1  C         26.0860   28.4390    6.2150 C.3     1  UNL1        0.0127
      2  N         25.4270   28.5690    7.5950 N.ar    1  UNL1       -0.3393
      3  C         24.1470   28.9970    7.8860 C.ar    1  UNL1        0.0964
      4  N         23.8910   28.7260    9.1810 N.ar    1  UNL1       -0.2358
      5  C         25.0490   28.1880    9.6520 C.ar    1  UNL1        0.0887
      6  C         25.9810   28.0510    8.7310 C.ar    1  UNL1        0.0316
      7  C         25.1960   27.7960   11.0560 C.ar    1  UNL1        0.0019
      8  C         24.1840   28.0940   11.9580 C.ar    1  UNL1       -0.0508
      9  C         24.2510   27.7300   13.3260 C.ar    1  UNL1       -0.0396
     10  C         25.3850   27.0750   13.7930 C.ar    1  UNL1        0.0367
     11  C         26.4770   26.8300   12.9440 C.ar    1  UNL1       -0.0396
     12  C         26.3900   27.1720   11.5850 C.ar    1  UNL1       -0.0508
     13  N         25.4670   26.7540   15.1660 N.am    1  UNL1       -0.2656
     14  C         25.5140   25.3170   15.5080 C.3     1  UNL1        0.0454
     15  C         24.1860   24.6570   15.4630 C.ar    1  UNL1       -0.0227
     16  C         23.9940   23.6760   16.4440 C.ar    1  UNL1       -0.0500
     17  C         22.7700   23.0180   16.3380 C.ar    1  UNL1       -0.0240
     18  S         21.8200   23.6430   15.0090 S.2     1  UNL1       -0.1047
     19  C         23.1290   24.7630   14.5950 C.ar    1  UNL1       -0.0196
     20  C         25.5530   27.8100   16.0800 C.2     1  UNL1        0.2416
     21  O         25.5170   28.9160   15.7310 O.2     1  UNL1       -0.2732
     22  C         25.7040   27.5530   17.6120 C.3     1  UNL1        0.1204
     23  N         24.5260   26.8740   18.1920 N.ar    1  UNL1       -0.2351
     24  N         23.2320   27.2890   17.9090 N.ar    1  UNL1       -0.0641
     25  N         22.4490   26.4090   18.4110 N.ar    1  UNL1       -0.1295
     26  C         23.1850   25.5010   19.0720 C.ar    1  UNL1        0.1127
     27  C         22.7460   24.4360   19.8970 C.ar    1  UNL1       -0.0324
     28  C         23.7420   23.6930   20.6470 C.ar    1  UNL1       -0.0596
     29  C         25.0990   24.0820   20.5320 C.ar    1  UNL1       -0.0596
     30  C         25.4940   25.1540   19.7270 C.ar    1  UNL1       -0.0345
     31  C         24.4670   25.7810   19.0050 C.ar    1  UNL1        0.0895
     32  H         26.7200   29.3140    6.0260 H       1  UNL1        0.0456
     33  H         26.6280   27.4950    6.0800 H       1  UNL1        0.0456
     34  H         25.3230   28.4420    5.4260 H       1  UNL1        0.0456
     35  H         23.5030   29.3450    7.0890 H       1  UNL1        0.1029
     36  H         27.0360   27.8160    8.7330 H       1  UNL1        0.0831
     37  H         23.3470   28.7050   11.6340 H       1  UNL1        0.0625
     38  H         23.4190   27.9800   13.9790 H       1  UNL1        0.0636
     39  H         27.4140   26.4800   13.3660 H       1  UNL1        0.0636
     40  H         27.2380   26.9810   10.9360 H       1  UNL1        0.0625
     41  H         26.2200   24.9040   14.7770 H       1  UNL1        0.0518
     42  H         26.0150   25.2800   16.4840 H       1  UNL1        0.0518
     43  H         24.7090   23.5140   17.2420 H       1  UNL1        0.0626
     44  H         22.3290   22.1720   16.8480 H       1  UNL1        0.0693
     45  H         23.0030   25.3580   13.7000 H       1  UNL1        0.0696
     46  H         26.6660   27.0960   17.8740 H       1  UNL1        0.0606
     47  H         25.6250   28.5280   18.1080 H       1  UNL1        0.0606
     48  H         21.6810   24.2680   20.0300 H       1  UNL1        0.0640
     49  H         23.3780   22.9380   21.3360 H       1  UNL1        0.0618
     50  H         25.7830   23.5240   21.1650 H       1  UNL1        0.0618
     51  H         26.4850   25.5820   19.8450 H       1  UNL1        0.0639
@<TRIPOS>BOND
     1     1    33    1
     2     1     2    1
     3     1    32    1
     4     1    34    1
     5     2     6   ar
     6     2     3   ar
     7     3     4   ar
     8     3    35    1
     9     4     5   ar
    10     5     7    1
    11     5     6   ar
    12     6    36    1
    13     7    12   ar
    14     7     8   ar
    15     8     9   ar
    16     8    37    1
    17     9    10   ar
    18     9    38    1
    19    10    13    1
    20    10    11   ar
    21    11    39    1
    22    11    12   ar
    23    12    40    1
    24    13    14    1
    25    13    20   am
    26    14    42    1
    27    14    15    1
    28    14    41    1
    29    15    16   ar
    30    15    19   ar
    31    16    43    1
    32    16    17   ar
    33    17    44    1
    34    17    18   ar
    35    18    19   ar
    36    19    45    1
    37    20    22    1
    38    20    21    2
    39    22    46    1
    40    22    23    1
    41    22    47    1
    42    23    31   ar
    43    23    24   ar
    44    24    25   ar
    45    25    26   ar
    46    26    27   ar
    47    26    31   ar
    48    27    28   ar
    49    27    48    1
    50    28    49    1
    51    28    29   ar
    52    29    50    1
    53    29    30   ar
    54    30    51    1
    55    30    31   ar
