@<TRIPOS>MOLECULE
/home/lqcapf-6/arquivos_joao/4D/Alinhamento/alinhadas2/Mol29_PAC_aligned.pdb
 53 57 0 0 0
SMALL
GASTEIGER

@<TRIPOS>ATOM
      1  F         27.6260   32.3450   12.5180 F       1  UNL1       -0.2040
      2  C         26.8010   31.9010   13.5590 C.ar    1  UNL1        0.1416
      3  C         27.2560   30.8430   14.3660 C.ar    1  UNL1       -0.0247
      4  C         26.4900   30.3120   15.4210 C.ar    1  UNL1       -0.0543
      5  C         25.2620   30.9190   15.7690 C.ar    1  UNL1       -0.0282
      6  C         24.8270   32.0330   15.0210 C.ar    1  UNL1       -0.0359
      7  C         25.5790   32.5040   13.8710 C.ar    1  UNL1        0.0764
      8 CL         25.0940   34.0290   13.0690 Cl      1  UNL1       -0.0806
      9  C         24.3860   30.3470   16.9670 C.3     1  UNL1        0.0449
     10  N         25.1260   30.3600   18.2710 N.am    1  UNL1       -0.2656
     11  C         25.7940   29.2260   18.7450 C.2     1  UNL1        0.2416
     12  O         26.5550   29.3200   19.7320 O.2     1  UNL1       -0.2732
     13  C         25.6720   27.8250   18.0000 C.3     1  UNL1        0.1204
     14  N         24.5220   26.9770   18.2640 N.ar    1  UNL1       -0.2351
     15  N         23.2260   27.2770   17.8660 N.ar    1  UNL1       -0.0641
     16  N         22.4190   26.3640   18.3600 N.ar    1  UNL1       -0.1295
     17  C         23.1730   25.4710   19.0940 C.ar    1  UNL1        0.1127
     18  C         22.7580   24.4130   19.9090 C.ar    1  UNL1       -0.0324
     19  C         23.7440   23.6880   20.5860 C.ar    1  UNL1       -0.0596
     20  C         25.1250   24.0340   20.5140 C.ar    1  UNL1       -0.0596
     21  C         25.4840   25.1730   19.7730 C.ar    1  UNL1       -0.0345
     22  C         24.4880   25.8240   19.0270 C.ar    1  UNL1        0.0895
     23  C         25.0460   31.6130   18.9670 C.ar    1  UNL1        0.0367
     24  C         26.1740   32.4260   18.9720 C.ar    1  UNL1       -0.0397
     25  C         26.1990   33.6980   19.6740 C.ar    1  UNL1       -0.0522
     26  C         25.0560   34.0450   20.4590 C.ar    1  UNL1       -0.0163
     27  C         23.9630   33.0840   20.6010 C.ar    1  UNL1       -0.0522
     28  C         24.0280   31.9220   19.8180 C.ar    1  UNL1       -0.0397
     29  C         25.0840   35.1770   21.3850 C.ar    1  UNL1        0.0002
     30  C         26.2940   35.5990   21.9910 C.ar    1  UNL1       -0.0512
     31  C         26.3470   36.5220   23.0810 C.ar    1  UNL1       -0.0430
     32  C         25.1460   37.1770   23.3980 C.ar    1  UNL1        0.0276
     33  N         23.9530   36.8040   22.8550 N.ar    1  UNL1       -0.2627
     34  C         23.8930   35.8380   21.9220 C.ar    1  UNL1        0.0352
     35  H         28.2240   30.3920   14.1700 H       1  UNL1        0.0647
     36  H         26.9630   29.5210   15.9960 H       1  UNL1        0.0622
     37  H         23.9090   32.5360   15.3120 H       1  UNL1        0.0636
     38  H         23.3650   30.7460   17.0050 H       1  UNL1        0.0518
     39  H         24.1130   29.3240   16.6790 H       1  UNL1        0.0518
     40  H         25.7440   28.0180   16.9230 H       1  UNL1        0.0606
     41  H         26.5780   27.3080   18.3410 H       1  UNL1        0.0606
     42  H         21.6980   24.2240   20.0460 H       1  UNL1        0.0640
     43  H         23.3630   22.9130   21.2460 H       1  UNL1        0.0618
     44  H         25.8830   23.4700   21.0490 H       1  UNL1        0.0618
     45  H         26.4770   25.6000   19.6710 H       1  UNL1        0.0639
     46  H         27.0170   32.1190   18.3620 H       1  UNL1        0.0636
     47  H         27.1520   34.2130   19.7440 H       1  UNL1        0.0624
     48  H         23.0730   33.1820   21.2140 H       1  UNL1        0.0624
     49  H         23.1880   31.2350   19.8360 H       1  UNL1        0.0636
     50  H         27.2360   35.1320   21.7200 H       1  UNL1        0.0625
     51  H         27.2680   36.8360   23.5620 H       1  UNL1        0.0633
     52  H         25.1660   38.0170   24.0910 H       1  UNL1        0.0829
     53  H         22.9350   35.5560   21.4900 H       1  UNL1        0.0836
@<TRIPOS>BOND
     1     1     2    1
     2     2     7   ar
     3     2     3   ar
     4     3     4   ar
     5     3    35    1
     6     4     5   ar
     7     4    36    1
     8     5     6   ar
     9     5     9    1
    10     6    37    1
    11     6     7   ar
    12     7     8    1
    13     9    38    1
    14     9    39    1
    15     9    10    1
    16    10    23    1
    17    10    11   am
    18    11    13    1
    19    11    12    2
    20    13    40    1
    21    13    14    1
    22    13    41    1
    23    14    15   ar
    24    14    22   ar
    25    15    16   ar
    26    16    17   ar
    27    17    18   ar
    28    17    22   ar
    29    18    42    1
    30    18    19   ar
    31    19    43    1
    32    19    20   ar
    33    20    21   ar
    34    20    44    1
    35    21    22   ar
    36    21    45    1
    37    23    28   ar
    38    23    24   ar
    39    24    25   ar
    40    24    46    1
    41    25    26   ar
    42    25    47    1
    43    26    29    1
    44    26    27   ar
    45    27    48    1
    46    27    28   ar
    47    28    49    1
    48    29    34   ar
    49    29    30   ar
    50    30    31   ar
    51    30    50    1
    52    31    32   ar
    53    31    51    1
    54    32    33   ar
    55    32    52    1
    56    33    34   ar
    57    34    53    1
