@<TRIPOS>MOLECULE
/home/lqcapf-6/arquivos_joao/4D/Alinhamento/alinhadas2/Mol21_PAC_aligned.pdb
 48 52 0 0 0
SMALL
GASTEIGER

@<TRIPOS>ATOM
      1  O         25.5680   28.2950   20.3140 O.2     1  UNL1       -0.2732
      2  C         26.0640   28.6150   19.2740 C.2     1  UNL1        0.2416
      3  C         25.6440   27.8920   17.9820 C.3     1  UNL1        0.1204
      4  N         24.5200   26.9300   18.2170 N.ar    1  UNL1       -0.2351
      5  N         23.2480   27.3390   17.9660 N.ar    1  UNL1       -0.0641
      6  N         22.4530   26.4160   18.4300 N.ar    1  UNL1       -0.1295
      7  C         23.1480   25.4120   19.0320 C.ar    1  UNL1        0.1127
      8  C         22.7500   24.3530   19.8010 C.ar    1  UNL1       -0.0324
      9  C         23.7880   23.6940   20.6040 C.ar    1  UNL1       -0.0596
     10  C         25.1190   24.1300   20.5990 C.ar    1  UNL1       -0.0596
     11  C         25.4590   25.1870   19.7690 C.ar    1  UNL1       -0.0345
     12  C         24.4540   25.7620   18.9750 C.ar    1  UNL1        0.0895
     13  N         26.9950   29.6720   19.2280 N.am    1  UNL1       -0.2656
     14  C         27.3490   30.4150   18.0000 C.3     1  UNL1        0.0454
     15  C         28.7240   30.0170   17.5160 C.ar    1  UNL1       -0.0227
     16  C         29.3810   30.9010   16.5910 C.ar    1  UNL1       -0.0500
     17  C         30.6280   30.3370   16.2270 C.ar    1  UNL1       -0.0240
     18  S         30.8900   28.7650   16.9780 S.2     1  UNL1       -0.1047
     19  C         29.3700   28.8540   17.8330 C.ar    1  UNL1       -0.0196
     20  C         27.5580   30.1380   20.4870 C.ar    1  UNL1        0.0367
     21  C         28.2310   29.2730   21.3060 C.ar    1  UNL1       -0.0396
     22  C         28.4220   29.6880   22.6530 C.ar    1  UNL1       -0.0508
     23  C         28.2750   31.0270   23.0890 C.ar    1  UNL1        0.0019
     24  C         27.7560   31.9020   22.1130 C.ar    1  UNL1       -0.0508
     25  C         27.3450   31.4960   20.9000 C.ar    1  UNL1       -0.0396
     26  C         28.5340   31.4370   24.5280 C.ar    1  UNL1        0.0885
     27  C         28.9930   30.6220   25.4770 C.ar    1  UNL1        0.0290
     28  N         29.0120   31.4010   26.6640 N.ar    1  UNL1       -0.3503
     29  C         28.7440   32.7020   26.2310 C.ar    1  UNL1        0.0940
     30  N         28.3410   32.6910   24.9870 N.ar    1  UNL1       -0.2360
     31  H         25.2960   28.6660   17.2870 H       1  UNL1        0.0606
     32  H         26.4960   27.3100   17.6130 H       1  UNL1        0.0606
     33  H         21.7080   24.0560   19.7260 H       1  UNL1        0.0640
     34  H         23.5960   22.8320   21.2380 H       1  UNL1        0.0618
     35  H         25.7830   23.6820   21.3320 H       1  UNL1        0.0618
     36  H         26.4790   25.5620   19.7510 H       1  UNL1        0.0639
     37  H         26.6100   30.2520   17.2070 H       1  UNL1        0.0518
     38  H         27.3180   31.4730   18.2860 H       1  UNL1        0.0518
     39  H         28.9630   31.8390   16.2440 H       1  UNL1        0.0626
     40  H         31.3380   30.8220   15.5700 H       1  UNL1        0.0693
     41  H         28.8810   28.0900   18.4220 H       1  UNL1        0.0696
     42  H         28.2210   28.2180   21.0520 H       1  UNL1        0.0636
     43  H         28.7440   29.0140   23.4410 H       1  UNL1        0.0625
     44  H         27.5720   32.9380   22.3810 H       1  UNL1        0.0625
     45  H         26.6060   32.0630   20.3410 H       1  UNL1        0.0636
     46  H         29.3590   29.6160   25.3240 H       1  UNL1        0.0829
     47  H         28.8660   33.5690   26.8660 H       1  UNL1        0.1027
     48  H         29.3090   31.1290   27.5900 H       1  UNL1        0.1662
@<TRIPOS>BOND
     1     1     2    2
     2     2     3    1
     3     2    13   am
     4     3     4    1
     5     3    32    1
     6     3    31    1
     7     4    12   ar
     8     4     5   ar
     9     5     6   ar
    10     6     7   ar
    11     7     8   ar
    12     7    12   ar
    13     8     9   ar
    14     8    33    1
    15     9    34    1
    16     9    10   ar
    17    10    35    1
    18    10    11   ar
    19    11    36    1
    20    11    12   ar
    21    13    20    1
    22    13    14    1
    23    14    15    1
    24    14    37    1
    25    14    38    1
    26    15    19   ar
    27    15    16   ar
    28    16    17   ar
    29    16    39    1
    30    17    18   ar
    31    17    40    1
    32    18    19   ar
    33    19    41    1
    34    20    21   ar
    35    20    25   ar
    36    21    42    1
    37    21    22   ar
    38    22    43    1
    39    22    23   ar
    40    23    26    1
    41    23    24   ar
    42    24    25   ar
    43    24    44    1
    44    25    45    1
    45    26    27   ar
    46    26    30   ar
    47    27    46    1
    48    27    28   ar
    49    28    48    1
    50    28    29   ar
    51    29    47    1
    52    29    30   ar
