@<TRIPOS>MOLECULE
/home/lqcapf-6/arquivos_joao/4D/Alinhamento/alinhadas2/Mol24_PAC_aligned.pdb
 53 57 0 0 0
SMALL
GASTEIGER

@<TRIPOS>ATOM
      1  O         26.9210   28.3360   19.6120 O.2     1  UNL1       -0.2735
      2  C         26.1230   28.8020   18.7740 C.2     1  UNL1        0.2387
      3  C         25.6530   27.7230   17.8410 C.3     1  UNL1        0.1081
      4  N         24.4970   27.0430   18.3840 N.pl3   1  UNL1       -0.2199
      5  N         23.2560   27.2090   17.7420 N.3     1  UNL1       -0.0148
      6  N         22.4550   26.3190   18.3400 N.pl3   1  UNL1       -0.1285
      7  C         23.1780   25.5400   19.1240 C.ar    1  UNL1        0.0926
      8  C         22.7430   24.4350   19.9390 C.ar    1  UNL1       -0.0356
      9  C         23.7530   23.6300   20.5780 C.ar    1  UNL1       -0.0598
     10  C         25.1180   23.9830   20.4760 C.ar    1  UNL1       -0.0599
     11  C         25.4820   25.1850   19.7180 C.ar    1  UNL1       -0.0374
     12  C         24.4570   25.8780   19.0900 C.ar    1  UNL1        0.0723
     13  N         25.5690   30.0730   18.8400 N.am    1  UNL1       -0.2698
     14  C         24.4980   30.4680   17.9050 C.3     1  UNL1        0.0227
     15  C         25.3700   30.9340   16.6630 C.3     1  UNL1       -0.0248
     16  C         24.5950   31.5840   15.4150 C.3     1  UNL1       -0.0488
     17  C         25.8730   32.4490   15.2710 C.3     1  UNL1       -0.0525
     18  C         25.9980   32.3330   16.8190 C.3     1  UNL1       -0.0488
     19  C         25.9840   30.9970   19.7980 C.ar    1  UNL1        0.0363
     20  C         27.2330   31.5460   19.7320 C.ar    1  UNL1       -0.0397
     21  C         27.5430   32.5430   20.7420 C.ar    1  UNL1       -0.0522
     22  C         26.7610   32.9050   21.8470 C.ar    1  UNL1       -0.0163
     23  C         25.4190   32.3580   21.8070 C.ar    1  UNL1       -0.0522
     24  C         25.0310   31.4480   20.7500 C.ar    1  UNL1       -0.0397
     25  C         27.3040   33.7050   22.9660 C.ar    1  UNL1        0.0002
     26  C         26.4800   34.3590   23.9010 C.ar    1  UNL1       -0.0512
     27  C         27.0060   35.1020   24.9190 C.ar    1  UNL1       -0.0430
     28  C         28.3400   35.3220   24.9400 C.ar    1  UNL1        0.0276
     29  N         29.1900   34.8020   24.0500 N.ar    1  UNL1       -0.2627
     30  C         28.7300   33.9800   23.0890 C.ar    1  UNL1        0.0352
     31  H         25.4400   28.0780   16.8260 H       1  UNL1        0.0576
     32  H         26.3380   26.8830   17.6700 H       1  UNL1        0.0576
     33  H         21.6780   24.2800   20.0920 H       1  UNL1        0.0638
     34  H         23.4560   22.8170   21.2350 H       1  UNL1        0.0618
     35  H         25.9550   23.5390   21.0080 H       1  UNL1        0.0618
     36  H         26.4840   25.6030   19.7590 H       1  UNL1        0.0637
     37  H         23.7710   29.6680   17.7210 H       1  UNL1        0.0471
     38  H         23.9110   31.3170   18.2780 H       1  UNL1        0.0471
     39  H         25.9630   30.0900   16.2930 H       1  UNL1        0.0316
     40  H         24.4280   30.8760   14.5970 H       1  UNL1        0.0268
     41  H         23.7000   32.0980   15.7800 H       1  UNL1        0.0268
     42  H         26.7720   32.1630   14.7150 H       1  UNL1        0.0265
     43  H         25.6480   33.4750   14.9590 H       1  UNL1        0.0265
     44  H         25.4650   33.1410   17.3300 H       1  UNL1        0.0268
     45  H         27.0210   32.2830   17.2050 H       1  UNL1        0.0268
     46  H         27.8860   31.3670   18.8820 H       1  UNL1        0.0636
     47  H         28.5390   32.9610   20.6350 H       1  UNL1        0.0624
     48  H         24.6730   32.6360   22.5470 H       1  UNL1        0.0624
     49  H         24.0320   31.0250   20.7970 H       1  UNL1        0.0636
     50  H         25.3960   34.3250   23.8570 H       1  UNL1        0.0625
     51  H         26.4270   35.5690   25.7110 H       1  UNL1        0.0633
     52  H         28.7760   35.9600   25.7070 H       1  UNL1        0.0829
     53  H         29.5200   33.5360   22.4850 H       1  UNL1        0.0836
@<TRIPOS>BOND
     1     1     2    2
     2     2    13   am
     3     2     3    1
     4     3     4    1
     5     3    32    1
     6     3    31    1
     7     4    12    1
     8     4     5    1
     9     5     6    1
    10     6     7    1
    11     7     8   ar
    12     7    12   ar
    13     8    33    1
    14     8     9   ar
    15     9    34    1
    16     9    10   ar
    17    10    35    1
    18    10    11   ar
    19    11    12   ar
    20    11    36    1
    21    13    19    1
    22    13    14    1
    23    14    38    1
    24    14    37    1
    25    14    15    1
    26    15    18    1
    27    15    16    1
    28    15    39    1
    29    16    41    1
    30    16    17    1
    31    16    40    1
    32    17    18    1
    33    17    43    1
    34    17    42    1
    35    18    44    1
    36    18    45    1
    37    19    24   ar
    38    19    20   ar
    39    20    21   ar
    40    20    46    1
    41    21    22   ar
    42    21    47    1
    43    22    25    1
    44    22    23   ar
    45    23    48    1
    46    23    24   ar
    47    24    49    1
    48    25    26   ar
    49    25    30   ar
    50    26    27   ar
    51    26    50    1
    52    27    51    1
    53    27    28   ar
    54    28    52    1
    55    28    29   ar
    56    29    30   ar
    57    30    53    1
