@<TRIPOS>MOLECULE
/home/lqcapf-6/arquivos_joao/4D/Alinhamento/alinhadas2/Mol27_PAC_aligned.pdb
 49 53 0 0 0
SMALL
GASTEIGER

@<TRIPOS>ATOM
      1  O         26.2960   28.5840   18.9490 O.2     1  UNL1       -0.2732
      2  C         26.6330   28.0090   17.9380 C.2     1  UNL1        0.2414
      3  C         25.7040   27.0180   17.1730 C.3     1  UNL1        0.1204
      4  N         24.5440   26.6720   17.9910 N.ar    1  UNL1       -0.2351
      5  N         23.2250   27.1510   17.7420 N.ar    1  UNL1       -0.0641
      6  N         22.4320   26.4580   18.5570 N.ar    1  UNL1       -0.1295
      7  C         23.1600   25.5990   19.2520 C.ar    1  UNL1        0.1127
      8  C         22.6670   24.7010   20.1450 C.ar    1  UNL1       -0.0324
      9  C         23.6890   23.8600   20.6730 C.ar    1  UNL1       -0.0596
     10  C         25.1290   24.0370   20.4860 C.ar    1  UNL1       -0.0596
     11  C         25.5660   25.0160   19.5410 C.ar    1  UNL1       -0.0345
     12  C         24.5270   25.7270   19.0070 C.ar    1  UNL1        0.0895
     13  N         27.9160   28.1770   17.4920 N.am    1  UNL1       -0.2680
     14  C         28.3500   27.8150   16.1110 C.3     1  UNL1        0.0426
     15  C         28.5210   26.3470   15.9710 C.3     1  UNL1        0.0888
     16  C         27.9480   25.6610   14.9050 C.3     1  UNL1        0.0437
     17  S         28.6150   24.1440   14.7720 S.3     1  UNL1       -0.1314
     18  C         29.5340   24.4460   16.2200 C.3     1  UNL1        0.0979
     19  N         29.5290   25.6870   16.6120 N.3     1  UNL1       -0.2127
     20  C         28.8360   28.9490   18.2490 C.ar    1  UNL1        0.0364
     21  C         28.7030   30.3450   18.2580 C.ar    1  UNL1       -0.0397
     22  C         29.4210   31.1360   19.1530 C.ar    1  UNL1       -0.0522
     23  C         30.3950   30.5560   19.9770 C.ar    1  UNL1       -0.0163
     24  C         30.6220   29.1800   19.8540 C.ar    1  UNL1       -0.0522
     25  C         29.8210   28.3820   18.9890 C.ar    1  UNL1       -0.0397
     26  C         31.2330   31.3910   21.0290 C.ar    1  UNL1        0.0002
     27  C         31.7700   32.6500   20.8380 C.ar    1  UNL1       -0.0512
     28  C         32.4160   33.3500   21.8240 C.ar    1  UNL1       -0.0430
     29  C         32.6850   32.6590   23.0020 C.ar    1  UNL1        0.0276
     30  N         32.0890   31.4570   23.3200 N.ar    1  UNL1       -0.2627
     31  C         31.4220   30.8630   22.3170 C.ar    1  UNL1        0.0352
     32  H         25.4300   27.5210   16.2380 H       1  UNL1        0.0606
     33  H         26.2650   26.0840   17.0390 H       1  UNL1        0.0606
     34  H         21.5980   24.5420   20.2470 H       1  UNL1        0.0640
     35  H         23.3130   23.0670   21.3130 H       1  UNL1        0.0618
     36  H         25.8690   23.3740   20.9220 H       1  UNL1        0.0618
     37  H         26.5650   25.4190   19.4040 H       1  UNL1        0.0639
     38  H         27.6760   28.2660   15.3730 H       1  UNL1        0.0488
     39  H         29.3110   28.3000   15.9030 H       1  UNL1        0.0488
     40  H         27.1560   26.0480   14.2780 H       1  UNL1        0.0444
     41  H         30.1360   23.6620   16.6580 H       1  UNL1        0.0616
     42  H         28.0880   30.9150   17.5680 H       1  UNL1        0.0636
     43  H         29.2990   32.2120   19.2370 H       1  UNL1        0.0624
     44  H         31.2370   28.5830   20.5210 H       1  UNL1        0.0624
     45  H         30.0480   27.3330   18.8270 H       1  UNL1        0.0636
     46  H         31.7270   33.1980   19.9010 H       1  UNL1        0.0625
     47  H         32.8500   34.3240   21.6180 H       1  UNL1        0.0633
     48  H         33.2970   33.1360   23.7670 H       1  UNL1        0.0829
     49  H         31.0410   29.8650   22.5280 H       1  UNL1        0.0836
@<TRIPOS>BOND
     1     1     2    2
     2     2     3    1
     3     2    13   am
     4     3     4    1
     5     3    32    1
     6     3    33    1
     7     4     5   ar
     8     4    12   ar
     9     5     6   ar
    10     6     7   ar
    11     7     8   ar
    12     7    12   ar
    13     8    34    1
    14     8     9   ar
    15     9    35    1
    16     9    10   ar
    17    10    11   ar
    18    10    36    1
    19    11    12   ar
    20    11    37    1
    21    13    20    1
    22    13    14    1
    23    14    38    1
    24    14    39    1
    25    14    15    1
    26    15    19    1
    27    15    16    1
    28    16    40    1
    29    16    17    1
    30    17    18    1
    31    18    19    1
    32    18    41    1
    33    20    21   ar
    34    20    25   ar
    35    21    22   ar
    36    21    42    1
    37    22    43    1
    38    22    23   ar
    39    23    26    1
    40    23    24   ar
    41    24    44    1
    42    24    25   ar
    43    25    45    1
    44    26    27   ar
    45    26    31   ar
    46    27    28   ar
    47    27    46    1
    48    28    47    1
    49    28    29   ar
    50    29    48    1
    51    29    30   ar
    52    30    31   ar
    53    31    49    1
