@<TRIPOS>MOLECULE
/home/lqcapf-6/arquivos_joao/4D/Alinhamento/alinhadas2/Mol32_PAC_aligned.pdb
 53 57 0 0 0
SMALL
GASTEIGER

@<TRIPOS>ATOM
      1 CL         30.9760   30.7630   19.7950 Cl      1  UNL1       -0.0835
      2  C         30.2170   29.5560   18.7520 C.ar    1  UNL1        0.0427
      3  C         30.5960   28.2640   18.9680 C.ar    1  UNL1       -0.0250
      4  C         30.0460   27.1990   18.2300 C.ar    1  UNL1        0.0427
      5  C         29.1660   27.4930   17.1740 C.ar    1  UNL1       -0.0386
      6  C         28.6440   28.8210   16.9950 C.ar    1  UNL1       -0.0270
      7  C         29.1210   29.8590   17.8690 C.ar    1  UNL1       -0.0386
      8  C         27.5730   29.1070   15.9110 C.3     1  UNL1        0.0449
      9  N         26.8880   27.9290   15.3760 N.am    1  UNL1       -0.2656
     10  C         26.0590   27.1580   16.1930 C.2     1  UNL1        0.2416
     11  O         25.6010   26.0770   15.8080 O.2     1  UNL1       -0.2732
     12  C         25.7070   27.6260   17.6580 C.3     1  UNL1        0.1204
     13  N         24.5140   27.0220   18.2810 N.ar    1  UNL1       -0.2351
     14  N         23.2230   27.2300   17.8130 N.ar    1  UNL1       -0.0641
     15  N         22.4520   26.2800   18.3380 N.ar    1  UNL1       -0.1295
     16  C         23.1520   25.5090   19.1620 C.ar    1  UNL1        0.1127
     17  C         22.7390   24.4780   19.9750 C.ar    1  UNL1       -0.0324
     18  C         23.7710   23.6570   20.5670 C.ar    1  UNL1       -0.0596
     19  C         25.1060   24.0200   20.4440 C.ar    1  UNL1       -0.0596
     20  C         25.5010   25.1620   19.7670 C.ar    1  UNL1       -0.0345
     21  C         24.4800   25.8630   19.0450 C.ar    1  UNL1        0.0895
     22  C         27.1330   27.6380   13.9490 C.ar    1  UNL1        0.0367
     23  C         26.9150   28.6480   13.0260 C.ar    1  UNL1       -0.0397
     24  C         27.0490   28.4070   11.6480 C.ar    1  UNL1       -0.0522
     25  C         27.5610   27.1920   11.1650 C.ar    1  UNL1       -0.0163
     26  C         27.7630   26.1320   12.1060 C.ar    1  UNL1       -0.0522
     27  C         27.4740   26.3520   13.4910 C.ar    1  UNL1       -0.0397
     28  C         27.8850   26.9380    9.7610 C.ar    1  UNL1        0.0002
     29  C         28.1770   28.0280    8.9150 C.ar    1  UNL1       -0.0512
     30  C         28.4710   27.8250    7.5140 C.ar    1  UNL1       -0.0430
     31  C         28.3370   26.5070    7.0270 C.ar    1  UNL1        0.0276
     32  N         27.9520   25.5170    7.8240 N.ar    1  UNL1       -0.2627
     33  C         27.7460   25.7020    9.1150 C.ar    1  UNL1        0.0352
     34 CL         30.2270   25.5240   18.7100 Cl      1  UNL1       -0.0835
     35  H         31.4650   28.0910   19.5950 H       1  UNL1        0.0647
     36  H         28.7640   26.6440   16.6280 H       1  UNL1        0.0635
     37  H         28.6760   30.8430   17.7500 H       1  UNL1        0.0635
     38  H         26.8810   29.8270   16.3610 H       1  UNL1        0.0518
     39  H         28.0940   29.6520   15.1130 H       1  UNL1        0.0518
     40  H         26.5470   27.5770   18.3610 H       1  UNL1        0.0606
     41  H         25.3950   28.6700   17.5330 H       1  UNL1        0.0606
     42  H         21.6690   24.2950   19.9780 H       1  UNL1        0.0640
     43  H         23.4250   22.7850   21.1160 H       1  UNL1        0.0618
     44  H         25.8700   23.3390   20.8070 H       1  UNL1        0.0618
     45  H         26.5440   25.4570   19.8200 H       1  UNL1        0.0639
     46  H         26.6830   29.6400   13.4020 H       1  UNL1        0.0636
     47  H         26.6700   29.1640   10.9690 H       1  UNL1        0.0624
     48  H         28.1250   25.1680   11.7630 H       1  UNL1        0.0624
     49  H         27.6890   25.5560   14.1970 H       1  UNL1        0.0636
     50  H         28.1890   29.0350    9.3220 H       1  UNL1        0.0625
     51  H         28.8510   28.6350    6.9000 H       1  UNL1        0.0633
     52  H         28.5550   26.3220    5.9750 H       1  UNL1        0.0829
     53  H         27.4120   24.8720    9.7370 H       1  UNL1        0.0836
@<TRIPOS>BOND
     1     1     2    1
     2     2     3   ar
     3     2     7   ar
     4     3     4   ar
     5     3    35    1
     6     4    34    1
     7     4     5   ar
     8     5    36    1
     9     5     6   ar
    10     6     8    1
    11     6     7   ar
    12     7    37    1
    13     8     9    1
    14     8    39    1
    15     8    38    1
    16     9    22    1
    17     9    10   am
    18    10    11    2
    19    10    12    1
    20    12    13    1
    21    12    40    1
    22    12    41    1
    23    13    21   ar
    24    13    14   ar
    25    14    15   ar
    26    15    16   ar
    27    16    17   ar
    28    16    21   ar
    29    17    18   ar
    30    17    42    1
    31    18    43    1
    32    18    19   ar
    33    19    44    1
    34    19    20   ar
    35    20    21   ar
    36    20    45    1
    37    22    27   ar
    38    22    23   ar
    39    23    24   ar
    40    23    46    1
    41    24    25   ar
    42    24    47    1
    43    25    28    1
    44    25    26   ar
    45    26    48    1
    46    26    27   ar
    47    27    49    1
    48    28    33   ar
    49    28    29   ar
    50    29    30   ar
    51    29    50    1
    52    30    31   ar
    53    30    51    1
    54    31    52    1
    55    31    32   ar
    56    32    33   ar
    57    33    53    1
