@<TRIPOS>MOLECULE
/home/lqcapf-6/arquivos_joao/4D/Alinhamento/alinhadas2/Mol34_PAC_aligned.pdb
 52 56 0 0 0
SMALL
GASTEIGER

@<TRIPOS>ATOM
      1 CL         32.8390   27.0270   17.9320 Cl      1  UNL1       -0.0820
      2  C         31.7270   27.7770   16.7650 C.ar    1  UNL1        0.0593
      3  C         32.1930   28.3120   15.5510 C.ar    1  UNL1        0.0459
      4  N         31.4580   29.0470   14.6600 N.ar    1  UNL1       -0.2615
      5  C         30.1410   29.0930   14.9260 C.ar    1  UNL1        0.0323
      6  C         29.5320   28.6040   16.0720 C.ar    1  UNL1       -0.0102
      7  C         30.3440   27.9680   17.0370 C.ar    1  UNL1       -0.0358
      8  C         28.0320   28.7560   16.3180 C.3     1  UNL1        0.0463
      9  N         27.1820   27.7280   15.5880 N.am    1  UNL1       -0.2655
     10  C         26.2190   27.0780   16.2590 C.2     1  UNL1        0.2416
     11  O         25.6780   26.1390   15.7270 O.2     1  UNL1       -0.2732
     12  C         25.8170   27.4980   17.6950 C.3     1  UNL1        0.1204
     13  N         24.5730   26.9220   18.2290 N.ar    1  UNL1       -0.2351
     14  N         23.2710   27.2070   17.9210 N.ar    1  UNL1       -0.0641
     15  N         22.4210   26.2950   18.4620 N.ar    1  UNL1       -0.1295
     16  C         23.1990   25.4780   19.0890 C.ar    1  UNL1        0.1127
     17  C         22.6920   24.4530   19.8790 C.ar    1  UNL1       -0.0324
     18  C         23.6770   23.7740   20.5950 C.ar    1  UNL1       -0.0596
     19  C         25.0780   24.0590   20.4880 C.ar    1  UNL1       -0.0596
     20  C         25.5200   25.1660   19.7020 C.ar    1  UNL1       -0.0345
     21  C         24.5080   25.8670   19.0270 C.ar    1  UNL1        0.0895
     22  C         27.3120   27.7110   14.2020 C.ar    1  UNL1        0.0367
     23  C         27.5780   26.4560   13.5430 C.ar    1  UNL1       -0.0397
     24  C         27.5830   26.3460   12.1170 C.ar    1  UNL1       -0.0522
     25  C         27.3400   27.4920   11.2950 C.ar    1  UNL1       -0.0163
     26  C         26.9310   28.7380   11.9520 C.ar    1  UNL1       -0.0522
     27  C         26.9820   28.8300   13.3980 C.ar    1  UNL1       -0.0397
     28  C         27.4480   27.3120    9.8320 C.ar    1  UNL1        0.0002
     29  C         27.1840   26.1080    9.1470 C.ar    1  UNL1       -0.0512
     30  C         27.3430   26.0510    7.7180 C.ar    1  UNL1       -0.0430
     31  C         27.7820   27.1900    6.9650 C.ar    1  UNL1        0.0276
     32  N         27.9010   28.3970    7.6370 N.ar    1  UNL1       -0.2627
     33  C         27.7450   28.4140    8.9650 C.ar    1  UNL1        0.0352
     34  H         33.2420   28.1550   15.3070 H       1  UNL1        0.0844
     35  H         29.5830   29.6980   14.2130 H       1  UNL1        0.0833
     36  H         29.9530   27.6750   18.0070 H       1  UNL1        0.0636
     37  H         27.9790   28.6620   17.4090 H       1  UNL1        0.0518
     38  H         27.7470   29.8010   16.1480 H       1  UNL1        0.0518
     39  H         26.6710   27.2760   18.3470 H       1  UNL1        0.0606
     40  H         25.7890   28.5910   17.6010 H       1  UNL1        0.0606
     41  H         21.6570   24.4510   20.2070 H       1  UNL1        0.0640
     42  H         23.3570   23.0680   21.3550 H       1  UNL1        0.0618
     43  H         25.7510   23.5520   21.1740 H       1  UNL1        0.0618
     44  H         26.5750   25.4220   19.6570 H       1  UNL1        0.0639
     45  H         27.6050   25.5650   14.1640 H       1  UNL1        0.0636
     46  H         27.9010   25.3720   11.7570 H       1  UNL1        0.0624
     47  H         26.6380   29.6110   11.3760 H       1  UNL1        0.0624
     48  H         26.6270   29.7260   13.8990 H       1  UNL1        0.0636
     49  H         26.9690   25.1860    9.6780 H       1  UNL1        0.0625
     50  H         27.0640   25.1000    7.2740 H       1  UNL1        0.0633
     51  H         27.8360   27.1840    5.8780 H       1  UNL1        0.0829
     52  H         27.9470   29.3730    9.4390 H       1  UNL1        0.0836
@<TRIPOS>BOND
     1     1     2    1
     2     2     7   ar
     3     2     3   ar
     4     3     4   ar
     5     3    34    1
     6     4     5   ar
     7     5    35    1
     8     5     6   ar
     9     6     8    1
    10     6     7   ar
    11     7    36    1
    12     8     9    1
    13     8    38    1
    14     8    37    1
    15     9    10   am
    16     9    22    1
    17    10    11    2
    18    10    12    1
    19    12    13    1
    20    12    40    1
    21    12    39    1
    22    13    14   ar
    23    13    21   ar
    24    14    15   ar
    25    15    16   ar
    26    16    17   ar
    27    16    21   ar
    28    17    41    1
    29    17    18   ar
    30    18    42    1
    31    18    19   ar
    32    19    20   ar
    33    19    43    1
    34    20    21   ar
    35    20    44    1
    36    22    27   ar
    37    22    23   ar
    38    23    24   ar
    39    23    45    1
    40    24    25   ar
    41    24    46    1
    42    25    28    1
    43    25    26   ar
    44    26    47    1
    45    26    27   ar
    46    27    48    1
    47    28    29   ar
    48    28    33   ar
    49    29    30   ar
    50    29    49    1
    51    30    50    1
    52    30    31   ar
    53    31    51    1
    54    31    32   ar
    55    32    33   ar
    56    33    52    1
