@<TRIPOS>MOLECULE
/home/lqcapf-6/arquivos_joao/4D/Alinhamento/alinhadas2/Mol38_PAC_aligned.pdb
 55 59 0 0 0
SMALL
GASTEIGER

@<TRIPOS>ATOM
      1  C         28.3700   32.6420   16.2690 C.3     1  UNL1        0.0789
      2  O         28.0610   31.4410   17.0230 O.3     1  UNL1       -0.4932
      3  C         28.7320   31.0160   18.1620 C.ar    1  UNL1        0.1420
      4  C         29.4160   31.8840   19.0180 C.ar    1  UNL1       -0.0103
      5  C         30.0190   31.5070   20.2550 C.ar    1  UNL1       -0.0114
      6  C         29.7980   30.1290   20.6370 C.ar    1  UNL1       -0.0519
      7  C         29.0400   29.2410   19.8330 C.ar    1  UNL1       -0.0361
      8  C         28.5080   29.6770   18.6170 C.ar    1  UNL1        0.0786
      9  N         27.7830   28.7690   17.8680 N.am    1  UNL1       -0.2623
     10  C         28.5620   28.1160   16.8110 C.3     1  UNL1        0.0450
     11  C         29.4980   27.0150   17.3000 C.ar    1  UNL1       -0.0283
     12  C         29.1900   25.6570   17.1930 C.ar    1  UNL1       -0.0570
     13  C         30.2560   24.7040   17.4880 C.ar    1  UNL1       -0.0601
     14  C         31.4970   25.1240   17.9540 C.ar    1  UNL1       -0.0434
     15  C         31.7120   26.5000   18.1930 C.ar    1  UNL1        0.0413
     16  C         30.7420   27.4140   17.8200 C.ar    1  UNL1       -0.0387
     17 CL         33.1760   27.1670   18.8940 Cl      1  UNL1       -0.0835
     18  C         26.4340   28.5250   18.0660 C.2     1  UNL1        0.2417
     19  O         25.8050   29.0560   18.9710 O.2     1  UNL1       -0.2732
     20  C         25.6890   27.3550   17.2870 C.3     1  UNL1        0.1204
     21  N         24.5580   26.8110   18.0560 N.ar    1  UNL1       -0.2351
     22  N         23.2790   27.0650   17.7450 N.ar    1  UNL1       -0.0641
     23  N         22.4400   26.3930   18.5040 N.ar    1  UNL1       -0.1295
     24  C         23.1590   25.5750   19.2550 C.ar    1  UNL1        0.1127
     25  C         22.7250   24.6620   20.1750 C.ar    1  UNL1       -0.0324
     26  C         23.7060   23.8050   20.6890 C.ar    1  UNL1       -0.0596
     27  C         25.0740   24.0030   20.3970 C.ar    1  UNL1       -0.0596
     28  C         25.4990   25.0500   19.5470 C.ar    1  UNL1       -0.0345
     29  C         24.5000   25.8570   19.0250 C.ar    1  UNL1        0.0895
     30  C         30.9860   32.3840   20.9550 C.ar    1  UNL1        0.0194
     31  C         30.8510   33.7520   21.0600 C.ar    1  UNL1        0.0568
     32  N         31.8690   34.2300   21.8110 N.ar    1  UNL1       -0.1817
     33  N         32.6090   33.1620   22.1300 N.ar    1  UNL1       -0.2841
     34  C         32.1940   32.0120   21.5060 C.ar    1  UNL1        0.0300
     35  H         29.3980   32.8380   15.9400 H       1  UNL1        0.0660
     36  H         27.7520   32.5440   15.3690 H       1  UNL1        0.0660
     37  H         27.9950   33.5200   16.8110 H       1  UNL1        0.0660
     38  H         29.5620   32.9080   18.6880 H       1  UNL1        0.0661
     39  H         30.2350   29.7240   21.5460 H       1  UNL1        0.0624
     40  H         28.8290   28.2230   20.1460 H       1  UNL1        0.0637
     41  H         27.8710   27.6990   16.0680 H       1  UNL1        0.0518
     42  H         29.1570   28.9160   16.3550 H       1  UNL1        0.0518
     43  H         28.2780   25.3040   16.7220 H       1  UNL1        0.0621
     44  H         30.1550   23.6480   17.2520 H       1  UNL1        0.0618
     45  H         32.3200   24.4790   18.2470 H       1  UNL1        0.0632
     46  H         30.8760   28.4790   17.9840 H       1  UNL1        0.0635
     47  H         25.3390   27.5380   16.2650 H       1  UNL1        0.0606
     48  H         26.3720   26.4970   17.2500 H       1  UNL1        0.0606
     49  H         21.6650   24.4770   20.3240 H       1  UNL1        0.0640
     50  H         23.5180   22.8840   21.2320 H       1  UNL1        0.0618
     51  H         25.8240   23.2940   20.7360 H       1  UNL1        0.0618
     52  H         26.5650   25.1500   19.3640 H       1  UNL1        0.0639
     53  H         29.9930   34.2940   20.6860 H       1  UNL1        0.0854
     54  H         32.6510   31.0350   21.5890 H       1  UNL1        0.0830
     55  H         33.4540   33.2380   22.6770 H       1  UNL1        0.1882
@<TRIPOS>BOND
     1     1     2    1
     2     1    37    1
     3     1    36    1
     4     1    35    1
     5     2     3    1
     6     3     8   ar
     7     3     4   ar
     8     4     5   ar
     9     4    38    1
    10     5     6   ar
    11     5    30    1
    12     6     7   ar
    13     6    39    1
    14     7    40    1
    15     7     8   ar
    16     8     9    1
    17     9    18   am
    18     9    10    1
    19    10    41    1
    20    10    11    1
    21    10    42    1
    22    11    12   ar
    23    11    16   ar
    24    12    43    1
    25    12    13   ar
    26    13    44    1
    27    13    14   ar
    28    14    15   ar
    29    14    45    1
    30    15    16   ar
    31    15    17    1
    32    16    46    1
    33    18    19    2
    34    18    20    1
    35    20    21    1
    36    20    47    1
    37    20    48    1
    38    21    22   ar
    39    21    29   ar
    40    22    23   ar
    41    23    24   ar
    42    24    25   ar
    43    24    29   ar
    44    25    49    1
    45    25    26   ar
    46    26    50    1
    47    26    27   ar
    48    27    51    1
    49    27    28   ar
    50    28    29   ar
    51    28    52    1
    52    30    31   ar
    53    30    34   ar
    54    31    53    1
    55    31    32   ar
    56    32    33   ar
    57    33    34   ar
    58    33    55    1
    59    34    54    1
