@<TRIPOS>MOLECULE
/home/lqcapf-6/arquivos_joao/4D/Alinhamento/alinhadas2/Mol36_PAC_aligned.pdb
 51 55 0 0 0
SMALL
GASTEIGER

@<TRIPOS>ATOM
      1 CL         32.7580   24.1420   15.0080 Cl      1  UNL1       -0.0835
      2  C         31.6600   25.4230   14.5250 C.ar    1  UNL1        0.0413
      3  C         31.9000   26.1770   13.2940 C.ar    1  UNL1       -0.0434
      4  C         30.9150   27.1200   12.9200 C.ar    1  UNL1       -0.0601
      5  C         29.7690   27.3400   13.6810 C.ar    1  UNL1       -0.0570
      6  C         29.5630   26.7430   14.9590 C.ar    1  UNL1       -0.0283
      7  C         30.5430   25.7590   15.3250 C.ar    1  UNL1       -0.0387
      8  C         28.3630   27.0840   15.8100 C.3     1  UNL1        0.0449
      9  N         27.1100   26.4830   15.2880 N.am    1  UNL1       -0.2656
     10  C         25.8710   26.7360   15.8950 C.2     1  UNL1        0.2416
     11  O         24.8250   26.4880   15.2650 O.2     1  UNL1       -0.2732
     12  C         25.7820   27.1960   17.3530 C.3     1  UNL1        0.1204
     13  N         24.5300   26.7590   18.0530 N.ar    1  UNL1       -0.2351
     14  N         23.2700   27.1360   17.7260 N.ar    1  UNL1       -0.0641
     15  N         22.4250   26.5390   18.5350 N.ar    1  UNL1       -0.1295
     16  C         23.1530   25.6190   19.2120 C.ar    1  UNL1        0.1127
     17  C         22.7460   24.5730   20.1110 C.ar    1  UNL1       -0.0324
     18  C         23.7360   23.7910   20.7240 C.ar    1  UNL1       -0.0596
     19  C         25.1110   24.0090   20.4910 C.ar    1  UNL1       -0.0596
     20  C         25.4890   25.0420   19.6150 C.ar    1  UNL1       -0.0345
     21  C         24.4780   25.7550   18.9260 C.ar    1  UNL1        0.0895
     22  C         27.1150   25.6360   14.1590 C.ar    1  UNL1        0.0367
     23  C         27.2730   24.3550   14.3500 C.ar    1  UNL1       -0.0397
     24  C         27.1910   23.5120   13.1720 C.ar    1  UNL1       -0.0522
     25  C         27.0720   24.1030   11.8530 C.ar    1  UNL1       -0.0148
     26  C         26.8290   25.4690   11.8030 C.ar    1  UNL1       -0.0522
     27  C         26.8280   26.2460   12.9610 C.ar    1  UNL1       -0.0397
     28  C         27.1060   23.3650   10.5960 C.ar    1  UNL1        0.0193
     29  C         27.8750   22.3030   10.3000 C.ar    1  UNL1        0.0300
     30  N         27.5820   22.0450    8.9960 N.ar    1  UNL1       -0.2841
     31  N         26.6280   22.8720    8.5420 N.ar    1  UNL1       -0.1817
     32  C         26.4130   23.7690    9.4600 C.ar    1  UNL1        0.0568
     33  H         32.8100   26.0060   12.7250 H       1  UNL1        0.0632
     34  H         30.9660   27.7380   12.0300 H       1  UNL1        0.0618
     35  H         29.0780   28.1130   13.3610 H       1  UNL1        0.0621
     36  H         30.5390   25.2290   16.2720 H       1  UNL1        0.0635
     37  H         28.6220   26.6510   16.7840 H       1  UNL1        0.0518
     38  H         28.1540   28.1520   15.9450 H       1  UNL1        0.0518
     39  H         26.6100   26.6590   17.8310 H       1  UNL1        0.0606
     40  H         25.8640   28.2870   17.4290 H       1  UNL1        0.0606
     41  H         21.6950   24.3620   20.2900 H       1  UNL1        0.0640
     42  H         23.4160   23.2210   21.5910 H       1  UNL1        0.0618
     43  H         25.8800   23.5310   21.0920 H       1  UNL1        0.0618
     44  H         26.5310   25.3330   19.5130 H       1  UNL1        0.0639
     45  H         27.4490   23.9100   15.3250 H       1  UNL1        0.0636
     46  H         27.2600   22.4350   13.2980 H       1  UNL1        0.0624
     47  H         26.7770   26.0470   10.8860 H       1  UNL1        0.0624
     48  H         26.5950   27.3060   12.9450 H       1  UNL1        0.0636
     49  H         28.5630   21.7160   10.8930 H       1  UNL1        0.0830
     50  H         25.7120   24.5720    9.2770 H       1  UNL1        0.0854
     51  H         28.1000   21.4420    8.3730 H       1  UNL1        0.1882
@<TRIPOS>BOND
     1     1     2    1
     2     2     7   ar
     3     2     3   ar
     4     3     4   ar
     5     3    33    1
     6     4     5   ar
     7     4    34    1
     8     5    35    1
     9     5     6   ar
    10     6     8    1
    11     6     7   ar
    12     7    36    1
    13     8     9    1
    14     8    38    1
    15     8    37    1
    16     9    10   am
    17     9    22    1
    18    10    11    2
    19    10    12    1
    20    12    13    1
    21    12    40    1
    22    12    39    1
    23    13    14   ar
    24    13    21   ar
    25    14    15   ar
    26    15    16   ar
    27    16    17   ar
    28    16    21   ar
    29    17    41    1
    30    17    18   ar
    31    18    42    1
    32    18    19   ar
    33    19    20   ar
    34    19    43    1
    35    20    21   ar
    36    20    44    1
    37    22    27   ar
    38    22    23   ar
    39    23    24   ar
    40    23    45    1
    41    24    25   ar
    42    24    46    1
    43    25    28    1
    44    25    26   ar
    45    26    47    1
    46    26    27   ar
    47    27    48    1
    48    28    32   ar
    49    28    29   ar
    50    29    30   ar
    51    29    49    1
    52    30    31   ar
    53    30    51    1
    54    31    32   ar
    55    32    50    1
