@<TRIPOS>MOLECULE
/home/lqcapf-6/arquivos_joao/4D/Alinhamento/alinhadas2/Mol37_PAC_aligned.pdb
 51 55 0 0 0
SMALL
GASTEIGER

@<TRIPOS>ATOM
      1  C         24.5230   25.7670   18.9510 C.ar    1  UNL1        0.0895
      2  C         23.2080   25.5750   19.1870 C.ar    1  UNL1        0.1127
      3  C         25.5190   25.1210   19.6460 C.ar    1  UNL1       -0.0345
      4  C         22.7690   24.5990   20.1210 C.ar    1  UNL1       -0.0324
      5  C         25.0970   23.9830   20.5170 C.ar    1  UNL1       -0.0596
      6  C         23.7110   23.7070   20.6730 C.ar    1  UNL1       -0.0596
      7  N         24.5140   26.8370   18.0320 N.ar    1  UNL1       -0.2351
      8  N         22.3880   26.4380   18.4800 N.ar    1  UNL1       -0.1295
      9  N         23.2100   27.1940   17.7850 N.ar    1  UNL1       -0.0641
     10  C         25.5580   27.4640   17.2430 C.3     1  UNL1        0.1204
     11  C         25.9220   26.8190   15.9200 C.2     1  UNL1        0.2416
     12  N         26.9670   27.4830   15.2020 N.am    1  UNL1       -0.2656
     13  O         25.4700   25.7090   15.5530 O.2     1  UNL1       -0.2732
     14  C         27.5860   26.9440   14.0080 C.3     1  UNL1        0.0449
     15  C         31.3100   26.0450   14.4560 C.ar    1  UNL1        0.0413
     16  C         31.2530   24.6410   14.5500 C.ar    1  UNL1       -0.0434
     17  C         30.1060   26.8400   14.3330 C.ar    1  UNL1       -0.0387
     18  C         30.0510   23.9760   14.3820 C.ar    1  UNL1       -0.0601
     19  C         28.9150   26.1700   14.1470 C.ar    1  UNL1       -0.0283
     20  C         28.9250   24.7530   14.1690 C.ar    1  UNL1       -0.0570
     21 CL         32.8050   26.8940   14.6050 Cl      1  UNL1       -0.0835
     22  C         29.4180   29.5920   17.0630 C.ar    1  UNL1       -0.0522
     23  C         29.1130   30.8230   16.5790 C.ar    1  UNL1       -0.0148
     24  C         28.6480   28.4470   16.6270 C.ar    1  UNL1       -0.0397
     25  C         28.0110   30.9760   15.6940 C.ar    1  UNL1       -0.0522
     26  C         27.6420   28.5980   15.6650 C.ar    1  UNL1        0.0367
     27  C         27.2370   29.8790   15.2580 C.ar    1  UNL1       -0.0397
     28  C         29.7440   32.1090   17.0530 C.ar    1  UNL1        0.0193
     29  C         30.3280   32.2540   18.2680 C.ar    1  UNL1        0.0300
     30  C         29.7270   33.2950   16.3540 C.ar    1  UNL1        0.0568
     31  N         30.8100   33.5650   18.1320 N.ar    1  UNL1       -0.2841
     32  N         30.4250   34.2100   17.0230 N.ar    1  UNL1       -0.1817
     33  H         26.5580   25.3880   19.4750 H       1  UNL1        0.0639
     34  H         21.7170   24.4550   20.3470 H       1  UNL1        0.0640
     35  H         25.8010   23.2570   20.9100 H       1  UNL1        0.0618
     36  H         23.4390   22.8710   21.3100 H       1  UNL1        0.0618
     37  H         25.1180   28.4390   16.9960 H       1  UNL1        0.0606
     38  H         26.3980   27.6930   17.9090 H       1  UNL1        0.0606
     39  H         26.9410   26.1600   13.5920 H       1  UNL1        0.0518
     40  H         27.7590   27.7000   13.2320 H       1  UNL1        0.0518
     41  H         32.1420   24.0390   14.7140 H       1  UNL1        0.0632
     42  H         30.1880   27.9230   14.3570 H       1  UNL1        0.0635
     43  H         29.8800   22.9040   14.4190 H       1  UNL1        0.0618
     44  H         28.0410   24.1520   13.9800 H       1  UNL1        0.0621
     45  H         30.1940   29.5140   17.8180 H       1  UNL1        0.0624
     46  H         28.8590   27.4300   16.9450 H       1  UNL1        0.0636
     47  H         27.6520   31.9520   15.3820 H       1  UNL1        0.0624
     48  H         26.3730   30.0670   14.6280 H       1  UNL1        0.0636
     49  H         30.5110   31.5460   19.0660 H       1  UNL1        0.0830
     50  H         29.1820   33.5470   15.4550 H       1  UNL1        0.0854
     51  H         31.1720   33.9740   18.9830 H       1  UNL1        0.1882
@<TRIPOS>BOND
     1     1     7   ar
     2     1     2   ar
     3     1     3   ar
     4     2     8   ar
     5     2     4   ar
     6     3    33    1
     7     3     5   ar
     8     4    34    1
     9     4     6   ar
    10     5     6   ar
    11     5    35    1
    12     6    36    1
    13     7     9   ar
    14     7    10    1
    15     8     9   ar
    16    10    37    1
    17    10    11    1
    18    10    38    1
    19    11    12   am
    20    11    13    2
    21    12    14    1
    22    12    26    1
    23    14    40    1
    24    14    39    1
    25    14    19    1
    26    15    17   ar
    27    15    21    1
    28    15    16   ar
    29    16    18   ar
    30    16    41    1
    31    17    19   ar
    32    17    42    1
    33    18    20   ar
    34    18    43    1
    35    19    20   ar
    36    20    44    1
    37    22    23   ar
    38    22    24   ar
    39    22    45    1
    40    23    25   ar
    41    23    28    1
    42    24    26   ar
    43    24    46    1
    44    25    47    1
    45    25    27   ar
    46    26    27   ar
    47    27    48    1
    48    28    30   ar
    49    28    29   ar
    50    29    31   ar
    51    29    49    1
    52    30    50    1
    53    30    32   ar
    54    31    32   ar
    55    31    51    1
