@<TRIPOS>MOLECULE
/home/lqcapf-6/arquivos_joao/4D/Alinhamento/alinhadas2/Mol33_PAC_aligned.pdb
 56 60 0 0 0
SMALL
GASTEIGER

@<TRIPOS>ATOM
      1  C         25.7440   27.8960   10.4110 C.3     1  UNL1       -0.0397
      2  C         24.8860   26.9810   11.2000 C.ar    1  UNL1       -0.0488
      3  C         24.1420   25.9670   10.5740 C.ar    1  UNL1       -0.0405
      4  C         23.2820   25.1060   11.3680 C.ar    1  UNL1        0.0415
      5  C         23.2720   25.2010   12.7610 C.ar    1  UNL1       -0.0387
      6  C         24.1010   26.1440   13.3410 C.ar    1  UNL1       -0.0281
      7  C         24.8630   27.0450   12.6210 C.ar    1  UNL1       -0.0541
      8  C         24.3250   26.1750   14.8190 C.3     1  UNL1        0.0449
      9  N         25.7180   25.7620   15.2290 N.am    1  UNL1       -0.2656
     10  C         26.3640   26.2480   16.3980 C.2     1  UNL1        0.2416
     11  O         27.3960   25.7770   16.7910 O.2     1  UNL1       -0.2732
     12  C         25.6200   27.2840   17.2670 C.3     1  UNL1        0.1204
     13  N         24.5230   26.7080   18.0320 N.ar    1  UNL1       -0.2351
     14  N         23.2810   27.1700   17.7640 N.ar    1  UNL1       -0.0641
     15  N         22.4260   26.5270   18.5000 N.ar    1  UNL1       -0.1295
     16  C         23.1840   25.5910   19.1950 C.ar    1  UNL1        0.1127
     17  C         22.7380   24.6050   20.1640 C.ar    1  UNL1       -0.0324
     18  C         23.7340   23.7570   20.7260 C.ar    1  UNL1       -0.0596
     19  C         25.0620   24.0310   20.4710 C.ar    1  UNL1       -0.0596
     20  C         25.4970   25.0680   19.5890 C.ar    1  UNL1       -0.0345
     21  C         24.4950   25.7650   18.9520 C.ar    1  UNL1        0.0895
     22  C         26.4110   24.7530   14.5500 C.ar    1  UNL1        0.0367
     23  C         25.8890   23.4590   14.3520 C.ar    1  UNL1       -0.0397
     24  C         26.5470   22.5700   13.4620 C.ar    1  UNL1       -0.0522
     25  C         27.7830   22.8530   12.8400 C.ar    1  UNL1       -0.0163
     26  C         28.2560   24.1570   13.0110 C.ar    1  UNL1       -0.0522
     27  C         27.6280   25.0910   13.8820 C.ar    1  UNL1       -0.0397
     28  C         28.5200   21.8570   11.9640 C.ar    1  UNL1        0.0002
     29  C         28.7590   20.6180   12.5450 C.ar    1  UNL1       -0.0512
     30  C         29.5030   19.7010   11.8030 C.ar    1  UNL1       -0.0430
     31  C         29.8020   20.0060   10.4330 C.ar    1  UNL1        0.0276
     32  N         29.5670   21.2280    9.8980 N.ar    1  UNL1       -0.2627
     33  C         28.8950   22.1040   10.6130 C.ar    1  UNL1        0.0352
     34 CL         22.1880   23.9890   10.6490 Cl      1  UNL1       -0.0835
     35  H         26.3440   27.4130    9.6300 H       1  UNL1        0.0278
     36  H         25.1470   28.5730    9.7890 H       1  UNL1        0.0278
     37  H         26.3060   28.5290   11.1080 H       1  UNL1        0.0278
     38  H         24.1390   25.8200    9.4980 H       1  UNL1        0.0635
     39  H         22.7990   24.5640   13.5040 H       1  UNL1        0.0635
     40  H         25.2960   27.8590   13.1940 H       1  UNL1        0.0623
     41  H         24.2780   27.2320   15.1110 H       1  UNL1        0.0518
     42  H         23.5920   25.6230   15.4190 H       1  UNL1        0.0518
     43  H         26.4310   27.7490   17.8430 H       1  UNL1        0.0606
     44  H         25.2550   28.0440   16.5670 H       1  UNL1        0.0606
     45  H         21.6980   24.3640   20.3620 H       1  UNL1        0.0640
     46  H         23.5530   22.9260   21.4010 H       1  UNL1        0.0618
     47  H         25.7970   23.4390   21.0070 H       1  UNL1        0.0618
     48  H         26.5250   25.3850   19.4390 H       1  UNL1        0.0639
     49  H         24.9910   23.1880   14.8990 H       1  UNL1        0.0636
     50  H         26.1020   21.5970   13.2760 H       1  UNL1        0.0624
     51  H         29.1320   24.5060   12.4710 H       1  UNL1        0.0624
     52  H         28.0490   26.0910   13.8490 H       1  UNL1        0.0636
     53  H         28.4510   20.4320   13.5700 H       1  UNL1        0.0625
     54  H         29.5430   18.6720   12.1490 H       1  UNL1        0.0633
     55  H         30.1060   19.2810    9.6800 H       1  UNL1        0.0829
     56  H         28.7450   23.0570   10.1070 H       1  UNL1        0.0836
@<TRIPOS>BOND
     1     1    36    1
     2     1    37    1
     3     1     2    1
     4     1    35    1
     5     2     3   ar
     6     2     7   ar
     7     3    38    1
     8     3     4   ar
     9     4    34    1
    10     4     5   ar
    11     5     6   ar
    12     5    39    1
    13     6     7   ar
    14     6     8    1
    15     7    40    1
    16     8    41    1
    17     8    42    1
    18     8     9    1
    19     9    10   am
    20     9    22    1
    21    10    12    1
    22    10    11    2
    23    12    44    1
    24    12    13    1
    25    12    43    1
    26    13    14   ar
    27    13    21   ar
    28    14    15   ar
    29    15    16   ar
    30    16    17   ar
    31    16    21   ar
    32    17    45    1
    33    17    18   ar
    34    18    46    1
    35    18    19   ar
    36    19    20   ar
    37    19    47    1
    38    20    21   ar
    39    20    48    1
    40    22    23   ar
    41    22    27   ar
    42    23    49    1
    43    23    24   ar
    44    24    50    1
    45    24    25   ar
    46    25    26   ar
    47    25    28    1
    48    26    27   ar
    49    26    51    1
    50    27    52    1
    51    28    33   ar
    52    28    29   ar
    53    29    53    1
    54    29    30   ar
    55    30    31   ar
    56    30    54    1
    57    31    32   ar
    58    31    55    1
    59    32    33   ar
    60    33    56    1
