@<TRIPOS>MOLECULE
/home/lqcapf-6/arquivos_joao/4D/Alinhamento/alinhadas2/Mol39_PAC_aligned.pdb
 50 54 0 0 0
SMALL
GASTEIGER

@<TRIPOS>ATOM
      1 CL         25.8270   31.5900   11.1620 Cl      1  UNL1       -0.0835
      2  C         25.5440   30.0930   12.0050 C.ar    1  UNL1        0.0413
      3  C         25.1830   28.9840   11.1810 C.ar    1  UNL1       -0.0434
      4  C         24.8680   27.7760   11.7650 C.ar    1  UNL1       -0.0601
      5  C         24.9240   27.6080   13.0950 C.ar    1  UNL1       -0.0570
      6  C         25.2800   28.7400   13.9200 C.ar    1  UNL1       -0.0283
      7  C         25.6470   29.9920   13.4040 C.ar    1  UNL1       -0.0387
      8  C         25.2830   28.5190   15.4570 C.3     1  UNL1        0.0450
      9  N         26.5310   27.9100   16.0600 N.am    1  UNL1       -0.2641
     10  C         26.6360   27.7300   17.4050 C.2     1  UNL1        0.2416
     11  O         27.6760   27.2780   17.8430 O.2     1  UNL1       -0.2732
     12  C         25.4680   28.1630   18.3110 C.3     1  UNL1        0.1204
     13  N         24.4610   27.0540   18.4140 N.ar    1  UNL1       -0.2351
     14  N         23.2410   27.2490   17.8170 N.ar    1  UNL1       -0.0641
     15  N         22.4710   26.2630   18.2410 N.ar    1  UNL1       -0.1295
     16  C         23.1630   25.5170   19.1430 C.ar    1  UNL1        0.1127
     17  C         22.7520   24.3830   19.8680 C.ar    1  UNL1       -0.0324
     18  C         23.7580   23.6490   20.5580 C.ar    1  UNL1       -0.0596
     19  C         25.0980   24.0260   20.4660 C.ar    1  UNL1       -0.0596
     20  C         25.5090   25.1540   19.7160 C.ar    1  UNL1       -0.0345
     21  C         24.4860   25.9260   19.1710 C.ar    1  UNL1        0.0895
     22  C         27.7580   28.0090   15.2880 C.ar    1  UNL1        0.0548
     23  C         28.5070   29.1790   15.2570 C.ar    1  UNL1       -0.0368
     24  C         29.5320   29.3380   14.3080 C.ar    1  UNL1       -0.0338
     25  C         29.7280   28.2460   13.3930 C.ar    1  UNL1        0.0740
     26  N         29.1060   27.0440   13.5570 N.ar    1  UNL1       -0.2530
     27  C         28.1550   26.9540   14.4700 C.ar    1  UNL1        0.0497
     28  C         30.7570   28.3300   12.3700 C.ar    1  UNL1        0.0375
     29  C         31.2370   29.4580   11.7820 C.ar    1  UNL1        0.0315
     30  N         32.1260   28.9350   10.8780 N.ar    1  UNL1       -0.2841
     31  N         32.3430   27.5960   10.9730 N.ar    1  UNL1       -0.1817
     32  C         31.5370   27.2280   11.9280 C.ar    1  UNL1        0.0583
     33  H         25.1950   29.0620   10.0980 H       1  UNL1        0.0632
     34  H         24.4750   26.9720   11.1490 H       1  UNL1        0.0618
     35  H         24.4770   26.7330   13.5570 H       1  UNL1        0.0621
     36  H         25.8410   30.8790   14.0000 H       1  UNL1        0.0635
     37  H         25.2040   29.4540   16.0250 H       1  UNL1        0.0518
     38  H         24.4840   27.8120   15.7120 H       1  UNL1        0.0518
     39  H         25.9240   28.2300   19.3070 H       1  UNL1        0.0606
     40  H         24.9730   29.0370   17.8710 H       1  UNL1        0.0606
     41  H         21.7170   24.0730   19.7570 H       1  UNL1        0.0640
     42  H         23.6100   22.7720   21.1810 H       1  UNL1        0.0618
     43  H         25.9100   23.3770   20.7820 H       1  UNL1        0.0618
     44  H         26.5490   25.4500   19.6230 H       1  UNL1        0.0639
     45  H         28.1590   29.9600   15.9260 H       1  UNL1        0.0637
     46  H         30.1260   30.2350   14.1680 H       1  UNL1        0.0639
     47  H         27.6720   26.0050   14.6940 H       1  UNL1        0.0849
     48  H         30.9300   30.4890   11.8850 H       1  UNL1        0.0830
     49  H         31.5320   26.1770   12.1860 H       1  UNL1        0.0854
     50  H         32.6930   29.4160   10.1930 H       1  UNL1        0.1882
@<TRIPOS>BOND
     1     1     2    1
     2     2     3   ar
     3     2     7   ar
     4     3     4   ar
     5     3    33    1
     6     4    34    1
     7     4     5   ar
     8     5    35    1
     9     5     6   ar
    10     6     8    1
    11     6     7   ar
    12     7    36    1
    13     8    38    1
    14     8     9    1
    15     8    37    1
    16     9    10   am
    17     9    22    1
    18    10    12    1
    19    10    11    2
    20    12    13    1
    21    12    40    1
    22    12    39    1
    23    13    14   ar
    24    13    21   ar
    25    14    15   ar
    26    15    16   ar
    27    16    17   ar
    28    16    21   ar
    29    17    41    1
    30    17    18   ar
    31    18    42    1
    32    18    19   ar
    33    19    43    1
    34    19    20   ar
    35    20    21   ar
    36    20    44    1
    37    22    27   ar
    38    22    23   ar
    39    23    45    1
    40    23    24   ar
    41    24    25   ar
    42    24    46    1
    43    25    26   ar
    44    25    28    1
    45    26    27   ar
    46    27    47    1
    47    28    32   ar
    48    28    29   ar
    49    29    30   ar
    50    29    48    1
    51    30    31   ar
    52    30    50    1
    53    31    32   ar
    54    32    49    1
