@<TRIPOS>MOLECULE
/home/lqcapf-6/arquivos_joao/4D/Alinhamento/alinhadas2/Mol31_PAC_aligned.pdb
 53 57 0 0 0
SMALL
GASTEIGER

@<TRIPOS>ATOM
      1  F         30.0640   27.6280   20.6710 F       1  UNL1       -0.2054
      2  C         30.1880   27.9000   19.3940 C.ar    1  UNL1        0.1251
      3  C         31.3960   28.4170   18.9660 C.ar    1  UNL1       -0.0081
      4  C         31.5150   28.7970   17.6370 C.ar    1  UNL1        0.0440
      5  C         30.4740   28.6160   16.7140 C.ar    1  UNL1       -0.0385
      6  C         29.3020   27.9850   17.2010 C.ar    1  UNL1       -0.0256
      7  C         29.0870   27.6340   18.5260 C.ar    1  UNL1       -0.0217
      8  C         28.2940   27.7980   16.1750 C.3     1  UNL1        0.0450
      9  N         27.8970   26.3490   16.0710 N.am    1  UNL1       -0.2656
     10  C         26.6420   25.8770   16.5090 C.2     1  UNL1        0.2416
     11  O         26.2970   24.6950   16.5260 O.2     1  UNL1       -0.2732
     12  C         25.6200   26.9320   16.9420 C.3     1  UNL1        0.1204
     13  N         24.4820   26.5180   17.7800 N.ar    1  UNL1       -0.2351
     14  N         23.2080   27.1230   17.6930 N.ar    1  UNL1       -0.0641
     15  N         22.4390   26.5400   18.6020 N.ar    1  UNL1       -0.1295
     16  C         23.2140   25.7230   19.3770 C.ar    1  UNL1        0.1127
     17  C         22.7670   24.7750   20.2890 C.ar    1  UNL1       -0.0324
     18  C         23.7430   23.9050   20.8270 C.ar    1  UNL1       -0.0596
     19  C         25.0940   23.9820   20.4770 C.ar    1  UNL1       -0.0596
     20  C         25.4740   24.9010   19.4360 C.ar    1  UNL1       -0.0345
     21  C         24.5180   25.7530   18.9120 C.ar    1  UNL1        0.0895
     22  C         28.8950   25.4820   15.6940 C.ar    1  UNL1        0.0367
     23  C         29.1450   25.2290   14.3320 C.ar    1  UNL1       -0.0397
     24  C         30.1360   24.2820   13.9710 C.ar    1  UNL1       -0.0522
     25  C         31.0110   23.6900   14.9320 C.ar    1  UNL1       -0.0163
     26  C         30.7440   23.8970   16.3190 C.ar    1  UNL1       -0.0522
     27  C         29.6640   24.8040   16.6490 C.ar    1  UNL1       -0.0397
     28  C         32.1390   22.7950   14.5110 C.ar    1  UNL1        0.0002
     29  C         31.9540   21.9590   13.3830 C.ar    1  UNL1       -0.0512
     30  C         32.8890   20.9690   13.0430 C.ar    1  UNL1       -0.0430
     31  C         34.0880   20.9410   13.8550 C.ar    1  UNL1        0.0276
     32  N         34.2670   21.7710   14.9400 N.ar    1  UNL1       -0.2627
     33  C         33.3670   22.6820   15.2360 C.ar    1  UNL1        0.0352
     34 CL         32.8920   29.6580   17.1100 Cl      1  UNL1       -0.0834
     35  H         32.2530   28.6290   19.5990 H       1  UNL1        0.0661
     36  H         30.5570   28.8210   15.6510 H       1  UNL1        0.0635
     37  H         28.1630   27.1490   18.8270 H       1  UNL1        0.0649
     38  H         27.4580   28.4920   16.3230 H       1  UNL1        0.0518
     39  H         28.6010   28.0410   15.1500 H       1  UNL1        0.0518
     40  H         26.1980   27.6480   17.5410 H       1  UNL1        0.0606
     41  H         25.1690   27.4350   16.0770 H       1  UNL1        0.0606
     42  H         21.7450   24.6380   20.6280 H       1  UNL1        0.0640
     43  H         23.4040   23.1850   21.5670 H       1  UNL1        0.0618
     44  H         25.8420   23.3720   20.9760 H       1  UNL1        0.0618
     45  H         26.5190   24.8640   19.1420 H       1  UNL1        0.0639
     46  H         28.6600   25.7580   13.5160 H       1  UNL1        0.0636
     47  H         30.2500   24.1010   12.9060 H       1  UNL1        0.0624
     48  H         31.3940   23.4490   17.0640 H       1  UNL1        0.0624
     49  H         29.4100   24.9030   17.7000 H       1  UNL1        0.0636
     50  H         31.0130   21.9770   12.8400 H       1  UNL1        0.0625
     51  H         32.7230   20.1000   12.4140 H       1  UNL1        0.0633
     52  H         34.7440   20.0720   13.8580 H       1  UNL1        0.0829
     53  H         33.5500   23.3440   16.0800 H       1  UNL1        0.0836
@<TRIPOS>BOND
     1     1     2    1
     2     2     7   ar
     3     2     3   ar
     4     3    35    1
     5     3     4   ar
     6     4     5   ar
     7     4    34    1
     8     5     6   ar
     9     5    36    1
    10     6     7   ar
    11     6     8    1
    12     7    37    1
    13     8     9    1
    14     8    38    1
    15     8    39    1
    16     9    10   am
    17     9    22    1
    18    10    11    2
    19    10    12    1
    20    12    13    1
    21    12    40    1
    22    12    41    1
    23    13    21   ar
    24    13    14   ar
    25    14    15   ar
    26    15    16   ar
    27    16    17   ar
    28    16    21   ar
    29    17    42    1
    30    17    18   ar
    31    18    43    1
    32    18    19   ar
    33    19    44    1
    34    19    20   ar
    35    20    21   ar
    36    20    45    1
    37    22    27   ar
    38    22    23   ar
    39    23    24   ar
    40    23    46    1
    41    24    25   ar
    42    24    47    1
    43    25    26   ar
    44    25    28    1
    45    26    48    1
    46    26    27   ar
    47    27    49    1
    48    28    33   ar
    49    28    29   ar
    50    29    50    1
    51    29    30   ar
    52    30    31   ar
    53    30    51    1
    54    31    32   ar
    55    31    52    1
    56    32    33   ar
    57    33    53    1
