@<TRIPOS>MOLECULE
/home/lqcapf-6/arquivos_joao/4D/Alinhamento/alinhadas2/Mol35_PAC_aligned.pdb
 54 58 0 0 0
SMALL
GASTEIGER

@<TRIPOS>ATOM
      1 CL         31.7270   28.4170   20.8590 Cl      1  UNL1       -0.0835
      2  C         30.8980   29.4990   19.8350 C.ar    1  UNL1        0.0413
      3  C         31.4780   30.7450   19.6190 C.ar    1  UNL1       -0.0434
      4  C         30.9880   31.6100   18.6140 C.ar    1  UNL1       -0.0601
      5  C         29.7850   31.4110   17.9580 C.ar    1  UNL1       -0.0570
      6  C         29.1940   30.1190   18.1780 C.ar    1  UNL1       -0.0283
      7  C         29.7520   29.1540   19.0870 C.ar    1  UNL1       -0.0387
      8  C         27.7900   29.9350   17.6910 C.3     1  UNL1        0.0449
      9  N         27.5550   28.6920   16.9610 N.am    1  UNL1       -0.2656
     10  C         26.3290   27.9300   17.0710 C.2     1  UNL1        0.2416
     11  O         26.0590   27.0650   16.3020 O.2     1  UNL1       -0.2732
     12  C         25.5760   28.0410   18.3950 C.3     1  UNL1        0.1204
     13  N         24.4770   27.0850   18.4820 N.ar    1  UNL1       -0.2351
     14  N         23.1570   27.3430   17.9850 N.ar    1  UNL1       -0.0641
     15  N         22.4600   26.2720   18.2280 N.ar    1  UNL1       -0.1295
     16  C         23.2350   25.4380   18.9750 C.ar    1  UNL1        0.1127
     17  C         22.8090   24.3310   19.6940 C.ar    1  UNL1       -0.0324
     18  C         23.7300   23.5660   20.4640 C.ar    1  UNL1       -0.0596
     19  C         25.0950   24.0680   20.5910 C.ar    1  UNL1       -0.0596
     20  C         25.4840   25.2380   19.8820 C.ar    1  UNL1       -0.0345
     21  C         24.4920   25.8800   19.0930 C.ar    1  UNL1        0.0895
     22  C         28.5650   28.3090   16.0240 C.ar    1  UNL1        0.0367
     23  C         29.1370   27.0060   16.1220 C.ar    1  UNL1       -0.0400
     24  C         30.3640   26.7420   15.5300 C.ar    1  UNL1       -0.0555
     25  C         30.8950   27.6740   14.6010 C.ar    1  UNL1       -0.0270
     26  C         30.2890   28.9650   14.3910 C.ar    1  UNL1       -0.0555
     27  C         29.0470   29.1860   15.0570 C.ar    1  UNL1       -0.0400
     28  C         32.1070   27.4250   13.8720 C.3     1  UNL1        0.1112
     29  C         32.0790   26.1320   13.3390 C.2     1  UNL1       -0.0654
     30  C         33.2580   25.6530   12.7700 C.2     1  UNL1       -0.0645
     31  C         34.3890   26.4650   12.5730 C.3     1  UNL1        0.0635
     32  N         34.3740   27.8040   12.9920 N.am    1  UNL1       -0.3059
     33  C         33.3140   28.2740   13.7880 C.2     1  UNL1        0.2295
     34  O         33.3280   29.3330   14.4400 O.2     1  UNL1       -0.2744
     35  H         32.4200   30.9860   20.1020 H       1  UNL1        0.0632
     36  H         31.5390   32.5310   18.4530 H       1  UNL1        0.0618
     37  H         29.4070   32.0550   17.1690 H       1  UNL1        0.0621
     38  H         29.3060   28.1820   19.2790 H       1  UNL1        0.0635
     39  H         27.2010   29.9810   18.6150 H       1  UNL1        0.0518
     40  H         27.4490   30.7610   17.0550 H       1  UNL1        0.0518
     41  H         26.3250   27.8280   19.1680 H       1  UNL1        0.0606
     42  H         25.2240   29.0730   18.5240 H       1  UNL1        0.0606
     43  H         21.7490   24.1050   19.6140 H       1  UNL1        0.0640
     44  H         23.4020   22.6980   21.0280 H       1  UNL1        0.0618
     45  H         25.7800   23.4860   21.2010 H       1  UNL1        0.0618
     46  H         26.5140   25.5780   19.8360 H       1  UNL1        0.0639
     47  H         28.7960   26.3710   16.9350 H       1  UNL1        0.0636
     48  H         30.8750   25.8100   15.7550 H       1  UNL1        0.0621
     49  H         30.6990   29.6330   13.6400 H       1  UNL1        0.0621
     50  H         28.5520   30.1110   14.7760 H       1  UNL1        0.0636
     51  H         31.1690   25.5450   13.3390 H       1  UNL1        0.0584
     52  H         33.2070   24.6270   12.4220 H       1  UNL1        0.0588
     53  H         35.2850   26.1810   12.0400 H       1  UNL1        0.0564
     54  H         35.1960   28.3930   12.9400 H       1  UNL1        0.1494
@<TRIPOS>BOND
     1     1     2    1
     2     2     3   ar
     3     2     7   ar
     4     3     4   ar
     5     3    35    1
     6     4     5   ar
     7     4    36    1
     8     5    37    1
     9     5     6   ar
    10     6     8    1
    11     6     7   ar
    12     7    38    1
    13     8    40    1
    14     8    39    1
    15     8     9    1
    16     9    10   am
    17     9    22    1
    18    10    12    1
    19    10    11    2
    20    12    42    1
    21    12    13    1
    22    12    41    1
    23    13    14   ar
    24    13    21   ar
    25    14    15   ar
    26    15    16   ar
    27    16    21   ar
    28    16    17   ar
    29    17    43    1
    30    17    18   ar
    31    18    19   ar
    32    18    44    1
    33    19    20   ar
    34    19    45    1
    35    20    21   ar
    36    20    46    1
    37    22    27   ar
    38    22    23   ar
    39    23    47    1
    40    23    24   ar
    41    24    25   ar
    42    24    48    1
    43    25    26   ar
    44    25    28    1
    45    26    27   ar
    46    26    49    1
    47    27    50    1
    48    28    33    1
    49    28    29    1
    50    29    51    1
    51    29    30    2
    52    30    31    1
    53    30    52    1
    54    31    32    1
    55    31    53    1
    56    32    33   am
    57    32    54    1
    58    33    34    2
