@<TRIPOS>MOLECULE
/home/lqcapf-6/arquivos_joao/4D/Alinhamento/alinhadas2/Mol41_PAC_aligned.pdb
 51 55 0 0 0
SMALL
GASTEIGER

@<TRIPOS>ATOM
      1  C         24.4640   25.7700   18.9690 C.ar    1  UNL1        0.0895
      2  C         23.1560   25.5620   19.2000 C.ar    1  UNL1        0.1127
      3  C         25.4860   25.0900   19.6200 C.ar    1  UNL1       -0.0345
      4  C         22.7590   24.5530   20.1270 C.ar    1  UNL1       -0.0324
      5  C         25.1260   23.9880   20.4600 C.ar    1  UNL1       -0.0596
      6  C         23.7290   23.7880   20.7180 C.ar    1  UNL1       -0.0596
      7  N         24.5200   26.7950   18.0730 N.ar    1  UNL1       -0.2351
      8  N         22.4270   26.5010   18.5000 N.ar    1  UNL1       -0.1295
      9  N         23.2720   27.1730   17.7250 N.ar    1  UNL1       -0.0641
     10  C         25.7390   27.4120   17.4830 C.3     1  UNL1        0.1204
     11  C         26.4910   26.4420   16.5000 C.2     1  UNL1        0.2416
     12  N         27.8510   26.6990   16.2680 N.am    1  UNL1       -0.2656
     13  O         25.8940   25.4880   16.0730 O.2     1  UNL1       -0.2732
     14  C         28.6040   25.6550   15.5560 C.3     1  UNL1        0.0449
     15  C         29.5560   22.9040   17.9910 C.ar    1  UNL1        0.0413
     16  C         30.9130   22.9500   17.9070 C.ar    1  UNL1       -0.0434
     17  C         28.8060   23.8690   17.2610 C.ar    1  UNL1       -0.0387
     18  C         31.6080   23.9120   17.1490 C.ar    1  UNL1       -0.0601
     19  C         29.4110   24.8010   16.4950 C.ar    1  UNL1       -0.0283
     20  C         30.8220   24.8800   16.4520 C.ar    1  UNL1       -0.0570
     21 CL         28.7920   21.8610   19.1520 Cl      1  UNL1       -0.0835
     22  C         29.8140   28.7100   18.7300 C.ar    1  UNL1       -0.0508
     23  C         30.2170   29.8600   17.9060 C.ar    1  UNL1        0.0019
     24  C         29.0090   27.6990   18.1890 C.ar    1  UNL1       -0.0396
     25  C         29.6590   29.9780   16.6370 C.ar    1  UNL1       -0.0508
     26  C         28.5990   27.7880   16.8310 C.ar    1  UNL1        0.0367
     27  C         28.8890   28.9130   16.0690 C.ar    1  UNL1       -0.0396
     28  C         30.9950   30.9740   18.5210 C.ar    1  UNL1        0.0885
     29  C         30.6020   32.3030   18.4360 C.ar    1  UNL1        0.0290
     30  N         32.1910   30.8470   19.1010 N.ar    1  UNL1       -0.2360
     31  N         31.6130   33.0000   19.0220 N.ar    1  UNL1       -0.3503
     32  C         32.5430   32.0770   19.4400 C.ar    1  UNL1        0.0940
     33  H         26.5250   25.1690   19.3170 H       1  UNL1        0.0639
     34  H         21.7020   24.5620   20.3720 H       1  UNL1        0.0640
     35  H         25.8770   23.2860   20.8090 H       1  UNL1        0.0618
     36  H         23.3730   22.9190   21.2640 H       1  UNL1        0.0618
     37  H         25.3790   28.2410   16.8620 H       1  UNL1        0.0606
     38  H         26.4210   27.8010   18.2500 H       1  UNL1        0.0606
     39  H         27.9990   25.0640   14.8580 H       1  UNL1        0.0518
     40  H         29.3140   26.1230   14.8640 H       1  UNL1        0.0518
     41  H         31.4480   22.2730   18.5670 H       1  UNL1        0.0632
     42  H         27.7220   23.8640   17.3270 H       1  UNL1        0.0635
     43  H         32.6810   23.9260   16.9810 H       1  UNL1        0.0618
     44  H         31.2700   25.7160   15.9210 H       1  UNL1        0.0621
     45  H         30.0950   28.7250   19.7780 H       1  UNL1        0.0625
     46  H         28.7030   26.8200   18.7480 H       1  UNL1        0.0636
     47  H         29.8860   30.8800   16.0770 H       1  UNL1        0.0625
     48  H         28.4820   28.9790   15.0650 H       1  UNL1        0.0636
     49  H         29.7800   32.8060   17.9450 H       1  UNL1        0.0829
     50  H         31.6660   33.9890   19.2180 H       1  UNL1        0.1662
     51  H         33.5090   32.3270   19.8610 H       1  UNL1        0.1027
@<TRIPOS>BOND
     1     1     3   ar
     2     1     2   ar
     3     1     7   ar
     4     2     4   ar
     5     2     8   ar
     6     3     5   ar
     7     3    33    1
     8     4     6   ar
     9     4    34    1
    10     5    35    1
    11     5     6   ar
    12     6    36    1
    13     7    10    1
    14     7     9   ar
    15     8     9   ar
    16    10    11    1
    17    10    38    1
    18    10    37    1
    19    11    12   am
    20    11    13    2
    21    12    14    1
    22    12    26    1
    23    14    19    1
    24    14    40    1
    25    14    39    1
    26    15    16   ar
    27    15    21    1
    28    15    17   ar
    29    16    41    1
    30    16    18   ar
    31    17    19   ar
    32    17    42    1
    33    18    43    1
    34    18    20   ar
    35    19    20   ar
    36    20    44    1
    37    22    45    1
    38    22    24   ar
    39    22    23   ar
    40    23    28    1
    41    23    25   ar
    42    24    46    1
    43    24    26   ar
    44    25    27   ar
    45    25    47    1
    46    26    27   ar
    47    27    48    1
    48    28    30   ar
    49    28    29   ar
    50    29    31   ar
    51    29    49    1
    52    30    32   ar
    53    31    32   ar
    54    31    50    1
    55    32    51    1
