@<TRIPOS>MOLECULE
/home/lqcapf-6/arquivos_joao/4D/Alinhamento/alinhadas2/Mol40_PAC_aligned.pdb
 50 54 0 0 0
SMALL
GASTEIGER

@<TRIPOS>ATOM
      1 CL         33.1510   30.5570   16.3400 Cl      1  UNL1       -0.0835
      2  C         31.4290   30.7890   16.1150 C.ar    1  UNL1        0.0413
      3  C         31.0480   31.9000   15.3250 C.ar    1  UNL1       -0.0434
      4  C         29.7190   32.0270   14.7550 C.ar    1  UNL1       -0.0601
      5  C         28.7730   31.0250   15.1230 C.ar    1  UNL1       -0.0570
      6  C         29.0740   30.0880   16.1490 C.ar    1  UNL1       -0.0283
      7  C         30.4660   29.9110   16.5160 C.ar    1  UNL1       -0.0387
      8  C         27.8730   29.2900   16.7040 C.3     1  UNL1        0.0463
      9  N         27.2810   28.1760   15.8280 N.am    1  UNL1       -0.2502
     10  C         26.3630   27.2970   16.3750 C.2     1  UNL1        0.2427
     11  O         26.0350   26.2580   15.8130 O.2     1  UNL1       -0.2732
     12  C         25.7490   27.6510   17.7730 C.3     1  UNL1        0.1205
     13  N         24.5290   26.8910   18.1910 N.ar    1  UNL1       -0.2351
     14  N         23.2500   27.2510   17.8230 N.ar    1  UNL1       -0.0641
     15  N         22.4140   26.4090   18.4060 N.ar    1  UNL1       -0.1295
     16  C         23.1700   25.5260   19.1340 C.ar    1  UNL1        0.1127
     17  C         22.7610   24.4800   19.9650 C.ar    1  UNL1       -0.0324
     18  C         23.7620   23.6830   20.6620 C.ar    1  UNL1       -0.0596
     19  C         25.0960   24.0390   20.5160 C.ar    1  UNL1       -0.0596
     20  C         25.4700   25.1100   19.6900 C.ar    1  UNL1       -0.0345
     21  C         24.4860   25.8310   19.0080 C.ar    1  UNL1        0.0895
     22  C         28.0840   27.7990   14.7340 C.ar    1  UNL1        0.1278
     23  C         28.1200   28.5420   13.4950 C.ar    1  UNL1       -0.0207
     24  C         28.8230   27.9220   12.4040 C.ar    1  UNL1       -0.0495
     25  C         29.6520   26.8080   12.5910 C.ar    1  UNL1       -0.0007
     26  C         29.5930   26.2170   13.8950 C.ar    1  UNL1        0.0372
     27  N         28.8790   26.7330   14.9480 N.ar    1  UNL1       -0.2393
     28  C         30.2660   26.1180   11.4380 C.2     1  UNL1       -0.0019
     29  C         30.3130   26.5590   10.1860 C.2     1  UNL1        0.0118
     30  N         31.0820   25.6330    9.5410 N.pl3   1  UNL1       -0.2695
     31  N         31.7170   24.8110   10.4360 N.3     1  UNL1       -0.1354
     32  C         31.1330   25.0180   11.6200 C.3     1  UNL1        0.0948
     33  H         31.8480   32.5600   15.0020 H       1  UNL1        0.0632
     34  H         29.5610   32.7470   13.9560 H       1  UNL1        0.0618
     35  H         27.7460   31.1760   14.8000 H       1  UNL1        0.0621
     36  H         30.6480   29.1590   17.2780 H       1  UNL1        0.0635
     37  H         28.2630   28.8680   17.6380 H       1  UNL1        0.0518
     38  H         27.0490   29.9560   16.9840 H       1  UNL1        0.0518
     39  H         26.5300   27.6110   18.5420 H       1  UNL1        0.0606
     40  H         25.4220   28.6940   17.6800 H       1  UNL1        0.0606
     41  H         21.7140   24.1900   19.9870 H       1  UNL1        0.0640
     42  H         23.4940   22.8410   21.2940 H       1  UNL1        0.0618
     43  H         25.8130   23.3430   20.9410 H       1  UNL1        0.0618
     44  H         26.5150   25.4090   19.6700 H       1  UNL1        0.0639
     45  H         27.5970   29.4850   13.3680 H       1  UNL1        0.0652
     46  H         28.8930   28.4250   11.4440 H       1  UNL1        0.0625
     47  H         30.0890   25.2670   14.0830 H       1  UNL1        0.0836
     48  H         29.9140   27.4200    9.6670 H       1  UNL1        0.0796
     49  H         31.2730   24.2850   12.4030 H       1  UNL1        0.0565
     50  H         31.4620   25.7280    8.6100 H       1  UNL1        0.1672
@<TRIPOS>BOND
     1     1     2    1
     2     2     7   ar
     3     2     3   ar
     4     3     4   ar
     5     3    33    1
     6     4     5   ar
     7     4    34    1
     8     5     6   ar
     9     5    35    1
    10     6     8    1
    11     6     7   ar
    12     7    36    1
    13     8     9    1
    14     8    37    1
    15     8    38    1
    16     9    10   am
    17     9    22    1
    18    10    11    2
    19    10    12    1
    20    12    13    1
    21    12    39    1
    22    12    40    1
    23    13    21   ar
    24    13    14   ar
    25    14    15   ar
    26    15    16   ar
    27    16    17   ar
    28    16    21   ar
    29    17    18   ar
    30    17    41    1
    31    18    42    1
    32    18    19   ar
    33    19    43    1
    34    19    20   ar
    35    20    44    1
    36    20    21   ar
    37    22    27   ar
    38    22    23   ar
    39    23    24   ar
    40    23    45    1
    41    24    25   ar
    42    24    46    1
    43    25    26   ar
    44    25    28    1
    45    26    47    1
    46    26    27   ar
    47    28    32    1
    48    28    29    2
    49    29    30    1
    50    29    48    1
    51    30    31    1
    52    30    50    1
    53    31    32    1
    54    32    49    1
